* File: MAC6_LPE.sp.pex
* Created: Fri Jan 13 01:03:26 2023
* Program "Calibre xRC"
* Version "v2021.1_33.19"
* Nominal Temperature: 27C
* Circuit Temperature: 27C
* 
.subckt PM_MAC6%VDD 2430 2654 2655 2656 2657 2658 2659 2660 2661 2662 2663 2664
+ 2665 2666 2670 2675 2680 2685 2690 2695 2700 2705 2710 2715 2720 2725 2730
+ 2735 2740 2745 2750 2755 2760 2765 2766 2770 2771 2775 2776 2780 2781 2785
+ 2786 2790 2791 2795 2796 2800 2805 2810 2815 2820 2825 2830 2835 2836 2840
+ 2845 2850 2855 2860 2865 2870 2875 2880 2885 2890 2895 2900 2905 2910 2915
+ 2920 2921 2925 2926 2930 2931 2935 2936 2940 2945 2950 2955 2956 2960 2961
+ 2965 2966 2970 2971 2975 2976 2980 2981 2985 2986 2990 2995 3000 3005 3006
+ 3010 3011 3015 3016 3020 3021 3025 3030 3035 3040 3045 3050 3055 3060 3065
+ 3070 3071 3075 3080 3085 3090 3091 3095 3100 3105 3110 3115 3120 3125 3126
+ 3130 3135 3136 3140 3145 3150 3155 3156 3160 3161 3165 3166 3170 3171 3175
+ 3176 3180 3181 3185 3190 3195 3200 3205 3210 3215 3216 3220 3225 3230 3235
+ 3240 3245 3250 3251 3255 3260 3265 3270 3275 3280 3285 3290 3295 3300 3305
+ 3310 3315 3316 3320 3321 3325 3330 3331 3335 3336 3340 3341 3345 3350 3355
+ 3360 3365 3370 3375 3380 3385 3386 3390 3395 3400 3405 3406 3410 3411 3415
+ 3416 3420 3425 3430 3435 3440 3445 3450 3455 3460 3465 3470 3475 3476 3480
+ 3485 3490 3491 3495 3500 3505 3510 3515 3516 3520 3525 3530 3535 3536 3540
+ 3545 3550 3555 3560 3565 3570 3571 3575 3576 3580 3585 3590 3595 3596 3600
+ 3605 3610 3615 3620 3625 3630 3635 3640 3641 3645 3650 3655 3660 3665 3666
+ 3670 3675 3680 3685 3690 3695 3700 3705 3710 3715 3720 3725 3726 3730 3735
+ 3740 3741 3745 3746 3750 3751 3755 3756 3760 3761 3765 3766 3770 3771 3775
+ 3780 3781 3785 3790 3795 3800 3805 3810 3815 3820 3825 3830 3835 3840 3841
+ 3845 3850 3855 3860 3861 3865 3870 3875 3876 3880 3881 3885 3886 3890 3895
+ 3896 3900 3905 3910 3915 3920 3925 3926 3930 3935 3940 3941 3945 3950 3955
+ 3956 3960 3965 3970 3975 3980 3985 3990 3995 4000 4005 4010 4015 4016 4020
+ 4025 4030 4031 4035 4036 4040 4045 4050 4055 4060 4065 4070 4075 4080 4085
+ 4086 4090 4095 4096 4100 4105 4110 4115 4116 4120 4125 4130 4131 4135 4140
+ 4145 4150 4151 4155 4156 4160 4161 4165 4170 4175 4176 4180 4181 4185 4190
+ 4195 4200 4205 4206 4210 4211 4215 4220 4225 4226 4230 4235 4236 4240 4241
+ 4245 4250 4255 4260 4261 4265 4270 4275 4280 4281 4285 4290 4295 4300 4305
+ 4310 4315 4320 4325 4330 4335 4340 4345 4346 4350 4355 4360 4365 4366 4370
+ 4371 4375 4380 4385 4390 4391 4395 4400 4405 4410 4411 4415 4420 4425 4426
+ 4430 4435 4440 4441 4445 4450 4455 4460 4465 4470 4471 4475 4476 4480 4481
+ 4485 4486 4490 4491 4495 4500 4505 4510 4515 4516 4520 4521 4525 4530 4535
+ 4540 4541 4545 4550 4555 4560 4565 4566 4570 4575 4580 4581 4585 4590 4595
+ 4600 4601 4605 4606 4610 4615 4620 4625 4630 4635 4640 4645 4646 4650 4651
+ 4655 4660 4665 4666 4670 4675 4680 4685 4690 4691 4695 4696 4700 4705 4710
+ 4715 4720 4725 4730 4735 4740 4741 4745 4750 4755 4760 4765 4770 4775 4780
+ 4785 4790 4795 4800 4805 4810 4815 4820 4821 4825 4826 4830 4831 4835 4840
+ 4841 4845 4846 4850 4851 4855 4860 4861 4865 4866 4870 4871 4875 4880 4885
+ 4890 4895 4896 4900 4905 4910 4911 4915 4920 4921 4925 4926 4930 4935 4940
+ 4945 4950 4955 4960 4965 4970 4975 4976 4980 4985 4990 4995 5000 5005 5010
+ 5011 5015 5020 5025 5030 5035 5040 5041 5045 5050 5055 5060 5065 5070 5071
+ 5075 5080 5085 5090 5095 5100 5101 5105 5110 5111 5115 5120 5125 5130 5131
+ 5135 5140 5141 5145 5146 5150 5151 5155 5160 5165 5170 5171 5175 5180 5181
+ 5185 5190 5195 5200 5205 5206 5210 5211 5215 5220 5225 5230 5231 5235 5236
+ 5240 5241 5245 5246 5250 5251 5255 5260 5265 5270 5275 5280 5285 5286 5290
+ 5295 5300 5305 5310 5315 5320 5325 5330 5335 5340 5345 5350 5355 5360 5365
+ 5370 5375 5380 5385 5390 5395 5396 5400 5405 5406 5410 5415 5416 5420 5425
+ 5430 5431 5435 5440 5445 5450 5455 5460 5461 5465 5466 5470 5471 5475 5476
+ 5480 5481 5485 5490 5495 5500 5505 5510 5515 5516 5520 5521 5525 5530 5535
+ 5540 5545 5550 5555 5560 5565 5570 5575 5580 5585 5590 5595 5600 5601 5605
+ 5606 5610 5611 5615 5620 5621 5625 5626 5630 5635 5636 5640 5645 5650 5655
+ 5660 5665 5670 5675 5676 5680 5685 5690 5695 5700 5705 5706 5710 5711 5715
+ 5716 5720 5721 5725 5730 5735 5740 5745 5746 5750 5751 5755 5760 5765 5766
+ 5770 5775 5780 5785 5790 5791 5795 5800 5805 5810 5815 5820 5825 5830 5831
+ 5835 5840 5845 5846 5850 5851 5855 5860 5865 5870 5875 5880 5881 5885 5890
+ 5895 5900 5905 5910 5915 5920 5925 5930 5931 5935 5940 5945 5950 5951 5955
+ 5960 5961 5965 5966 5970 5971 5975 5980 5985 5990 5995 6000 6001 6005 6006
+ 6010 6011 6015 6016 7350 7371 7374 7377 7379 7383 7386 7388 7390 7392 7394
+ 7396 7398
c0 10189 0 0.0294672f
c1 10172 0 0.0259762f
c2 10167 0 0.0211332f
c3 10159 0 0.0271887f
c4 10152 0 0.0197747f
c5 10135 0 0.0295911f
c6 10132 0 0.0227993f
c7 10118 0 0.0245f
c8 10112 0 0.0198914f
c9 10109 0 0.09612f
c10 10104 0 0.0261679f
c11 10101 0 0.0343315f
c12 10100 0 0.0368278f
c13 10084 0 0.0493326f
c14 10081 0 0.0287636f
c15 10073 0 0.0538288f
c16 10068 0 0.0504006f
c17 10053 0 0.0542073f
c18 10051 0 0.0690419f
c19 10046 0 0.0225486f
c20 10034 0 0.1208f
c21 10031 0 0.13141f
c22 10028 0 0.129434f
c23 10022 0 0.0254295f
c24 10012 0 0.0198237f
c25 10009 0 0.126475f
c26 10004 0 0.0363857f
c27 10001 0 0.0564843f
c28 10000 0 0.0382151f
c29 9993 0 0.0320486f
c30 9983 0 0.113568f
c31 9980 0 0.11669f
c32 9977 0 0.114676f
c33 9951 0 0.0280052f
c34 9948 0 0.0961585f
c35 9939 0 0.0249676f
c36 9936 0 0.131906f
c37 9933 0 0.144564f
c38 9917 0 0.126234f
c39 9912 0 0.0402382f
c40 9909 0 0.0572531f
c41 9908 0 0.0390731f
c42 9902 0 0.126157f
c43 9889 0 0.0199735f
c44 9886 0 0.122316f
c45 9883 0 0.12028f
c46 9878 0 0.0275488f
c47 9866 0 0.0300366f
c48 9855 0 0.0248819f
c49 9850 0 0.126185f
c50 9847 0 0.141172f
c51 9836 0 0.0349186f
c52 9833 0 0.126679f
c53 9828 0 0.0407453f
c54 9825 0 0.0588384f
c55 9824 0 0.0382033f
c56 9812 0 0.109855f
c57 9809 0 0.127565f
c58 9801 0 0.0264798f
c59 9791 0 0.0210261f
c60 9783 0 0.0316974f
c61 9781 0 0.0447211f
c62 9758 0 0.0242327f
c63 9745 0 0.132236f
c64 9742 0 0.160962f
c65 9739 0 0.12683f
c66 9734 0 0.0407453f
c67 9731 0 0.0613096f
c68 9730 0 0.0403524f
c69 9727 0 0.0204667f
c70 9713 0 0.0218414f
c71 9695 0 0.116503f
c72 9692 0 0.124294f
c73 9684 0 0.0317834f
c74 9682 0 0.044924f
c75 9675 0 0.0227823f
c76 9666 0 0.0252f
c77 9651 0 0.0197665f
c78 9648 0 0.126464f
c79 9643 0 0.0407453f
c80 9640 0 0.0613096f
c81 9639 0 0.0403524f
c82 9634 0 0.126175f
c83 9631 0 0.147492f
c84 9614 0 0.0240684f
c85 9608 0 0.0267506f
c86 9598 0 0.107919f
c87 9595 0 0.128093f
c88 9580 0 0.0314243f
c89 9578 0 0.0440719f
c90 9573 0 0.0279376f
c91 9557 0 0.127131f
c92 9552 0 0.0407453f
c93 9549 0 0.0613096f
c94 9548 0 0.0403731f
c95 9545 0 0.030081f
c96 9528 0 0.126524f
c97 9525 0 0.155513f
c98 9522 0 0.025006f
c99 9510 0 0.0266146f
c100 9494 0 0.0316974f
c101 9492 0 0.0447211f
c102 9487 0 0.116013f
c103 9484 0 0.132157f
c104 9467 0 0.131126f
c105 9462 0 0.0394055f
c106 9459 0 0.0615988f
c107 9458 0 0.0425754f
c108 9451 0 0.0198237f
c109 9433 0 0.126911f
c110 9430 0 0.152474f
c111 9425 0 0.0276004f
c112 9417 0 0.0320204f
c113 9399 0 0.0174253f
c114 9394 0 0.0206758f
c115 9386 0 0.0314243f
c116 9384 0 0.0440645f
c117 9379 0 0.113697f
c118 9376 0 0.13241f
c119 9371 0 0.0197805f
c120 9364 0 0.0270335f
c121 9359 0 0.124658f
c122 9353 0 0.0267506f
c123 9340 0 0.030497f
c124 9331 0 0.081211f
c125 9317 0 0.0518927f
c126 9307 0 0.0296359f
c127 9304 0 0.0961616f
c128 9299 0 0.028848f
c129 9296 0 0.0434093f
c130 9295 0 0.040044f
c131 9291 0 0.0604008f
c132 9286 0 0.0553069f
c133 9276 0 0.0257837f
c134 9274 0 0.041839f
c135 9256 0 0.110267f
c136 9254 0 0.0249287f
c137 9247 0 0.100141f
c138 9241 0 0.125148f
c139 9238 0 0.126286f
c140 9225 0 0.0418939f
c141 9219 0 0.13577f
c142 9208 0 0.132073f
c143 9205 0 0.101321f
c144 9192 0 0.124685f
c145 9182 0 0.131959f
c146 9173 0 0.020806f
c147 9152 0 0.105269f
c148 9146 0 0.0275179f
c149 9143 0 0.127438f
c150 9137 0 0.119574f
c151 9134 0 0.0975814f
c152 9117 0 0.0310231f
c153 9102 0 0.0227438f
c154 9089 0 0.0287724f
c155 9086 0 0.141735f
c156 9048 0 0.0199457f
c157 9043 0 0.0182557f
c158 9025 0 0.0297964f
c159 9005 0 0.0224038f
c160 9000 0 0.0310869f
c161 8973 0 0.0216602f
c162 8970 0 0.0257878f
c163 8946 0 0.0240451f
c164 8943 0 0.0311067f
c165 8935 0 0.0222414f
c166 8929 0 0.0287702f
c167 8924 0 0.0284167f
c168 8915 0 0.0350477f
c169 8504 0 0.215958f
c170 8167 0 0.0699009f
c171 8165 0 0.109264f
c172 8164 0 0.344079f
c173 8162 0 0.264038f
c174 8140 0 0.103009f
c175 8132 0 0.224274f
c176 8131 0 0.334985f
c177 8128 0 0.0411222f
c178 8127 0 0.295045f
c179 8123 0 0.207157f
c180 8121 0 0.273848f
c181 8119 0 0.634292f
c182 8116 0 0.168522f
c183 8111 0 0.142709f
c184 8108 0 0.0952682f
c185 8103 0 0.313004f
c186 8093 0 0.190265f
c187 8083 0 0.591588f
c188 8079 0 0.275472f
c189 8075 0 0.40246f
c190 8073 0 0.116698f
c191 8059 0 0.195721f
c192 8056 0 0.132352f
c193 8052 0 0.263862f
c194 8050 0 0.0275648f
c195 8046 0 0.601265f
c196 8044 0 0.0640767f
c197 8040 0 0.120066f
c198 8032 0 0.192712f
c199 8030 0 0.211955f
c200 8028 0 0.111618f
c201 8025 0 0.225864f
c202 8021 0 0.0465062f
c203 8018 0 0.164832f
c204 8009 0 0.264126f
c205 8006 0 0.573767f
c206 8003 0 0.217945f
c207 7997 0 0.578226f
c208 7994 0 0.0956621f
c209 7989 0 0.271886f
c210 7983 0 0.209547f
c211 7980 0 0.396445f
c212 7978 0 0.251295f
c213 7974 0 0.132921f
c214 7965 0 0.605338f
c215 7953 0 0.284304f
c216 7950 0 0.205165f
c217 7948 0 0.111495f
c218 7941 0 0.274182f
c219 7932 0 0.270363f
c220 7930 0 0.0294901f
c221 7929 0 0.393158f
c222 7927 0 0.609746f
c223 7924 0 0.0473762f
c224 7920 0 0.182997f
c225 7914 0 0.0753107f
c226 7910 0 0.255848f
c227 7907 0 0.0779816f
c228 7902 0 0.0936597f
c229 7893 0 0.45028f
c230 7891 0 0.118909f
c231 7885 0 0.258331f
c232 7883 0 0.434774f
c233 7881 0 0.0572327f
c234 7879 0 0.333906f
c235 7872 0 0.04999f
c236 7864 0 0.0367598f
c237 7862 0 0.232826f
c238 7849 0 0.0575079f
c239 7843 0 0.234206f
c240 7841 0 0.234491f
c241 7829 0 0.127753f
c242 7821 0 0.272255f
c243 7818 0 0.272255f
c244 7811 0 0.152367f
c245 7810 0 0.0803871f
c246 7806 0 0.092666f
c247 7802 0 0.1843f
c248 7799 0 0.137523f
c249 7798 0 0.0583855f
c250 7797 0 0.0957468f
c251 7794 0 0.0911397f
c252 7793 0 0.0854008f
c253 7790 0 0.0803383f
c254 7787 0 0.0889988f
c255 7784 0 0.0906067f
c256 7783 0 0.085391f
c257 7780 0 0.132382f
c258 7779 0 0.0620681f
c259 7778 0 0.0959166f
c260 7775 0 0.0900566f
c261 7772 0 0.0908897f
c262 7771 0 0.085391f
c263 7768 0 0.138271f
c264 7767 0 0.0618253f
c265 7766 0 0.0959166f
c266 7763 0 0.139037f
c267 7762 0 0.0582196f
c268 7761 0 0.0957934f
c269 7758 0 0.0925199f
c270 7757 0 0.085408f
c271 7754 0 0.0816345f
c272 7751 0 0.0900566f
c273 7748 0 0.0913403f
c274 7747 0 0.085391f
c275 7744 0 0.144648f
c276 7743 0 0.0617381f
c277 7742 0 0.0959166f
c278 7739 0 0.0900566f
c279 7736 0 0.0946358f
c280 7735 0 0.0863919f
c281 7732 0 0.146119f
c282 7731 0 0.061813f
c283 7730 0 0.0959166f
c284 7727 0 0.138985f
c285 7726 0 0.0582196f
c286 7725 0 0.0957931f
c287 7722 0 0.09243f
c288 7721 0 0.085405f
c289 7718 0 0.0802644f
c290 7715 0 0.0900566f
c291 7712 0 0.0974086f
c292 7711 0 0.0863919f
c293 7708 0 0.146119f
c294 7707 0 0.0617322f
c295 7706 0 0.0959166f
c296 7703 0 0.138985f
c297 7702 0 0.0582196f
c298 7701 0 0.0957932f
c299 7698 0 0.0924939f
c300 7697 0 0.0854598f
c301 7694 0 0.0802908f
c302 7691 0 0.0900566f
c303 7688 0 0.0966376f
c304 7687 0 0.0863919f
c305 7684 0 0.146119f
c306 7683 0 0.0618112f
c307 7682 0 0.0959166f
c308 7679 0 0.138985f
c309 7678 0 0.0582196f
c310 7677 0 0.0957934f
c311 7674 0 0.0924346f
c312 7673 0 0.0854041f
c313 7670 0 0.0801764f
c314 7667 0 0.0933665f
c315 7664 0 0.0978463f
c316 7663 0 0.0863919f
c317 7660 0 0.150616f
c318 7659 0 0.0643597f
c319 7658 0 0.0959166f
c320 7655 0 0.138985f
c321 7654 0 0.0582196f
c322 7653 0 0.0957931f
c323 7650 0 0.09243f
c324 7649 0 0.085405f
c325 7646 0 0.0802644f
c326 7643 0 0.110166f
c327 7640 0 0.0966401f
c328 7639 0 0.0862928f
c329 7636 0 0.146167f
c330 7635 0 0.062857f
c331 7634 0 0.0957669f
c332 7631 0 0.123819f
c333 7630 0 0.0589967f
c334 7626 0 0.0899775f
c335 7621 0 0.139198f
c336 7620 0 0.0583092f
c337 7619 0 0.0957931f
c338 7616 0 0.0925341f
c339 7615 0 0.0854041f
c340 7612 0 0.0802042f
c341 7609 0 0.109697f
c342 7606 0 0.0966574f
c343 7605 0 0.0863056f
c344 7602 0 0.146231f
c345 7601 0 0.0628224f
c346 7600 0 0.0957508f
c347 7596 0 0.032644f
c348 7595 0 0.189195f
c349 7588 0 0.0340544f
c350 7583 0 0.0367034f
c351 7515 0 0.00661089f
c352 7512 0 0.022619f
c353 7507 0 0.011985f
c354 7502 0 0.0299853f
c355 7497 0 0.0204567f
c356 7492 0 0.0155158f
c357 7487 0 0.0040079f
c358 7482 0 0.00110509f
c359 7477 0 0.0129602f
c360 7472 0 0.00534806f
c361 7467 0 0.0108221f
c362 7462 0 0.0831717f
c363 7457 0 0.00437568f
c364 7452 0 0.0123114f
c365 7447 0 0.0220954f
c366 7442 0 0.0224635f
c367 7437 0 0.0485652f
c368 7432 0 0.00413442f
c369 7427 0 0.00291895f
c370 7422 0 0.00241928f
c371 7417 0 0.00170348f
c372 7411 0 0.110836f
c373 7408 0 0.139462f
c374 7407 0 0.105809f
c375 7405 0 0.124565f
c376 7403 0 0.0930392f
c377 7401 0 0.054116f
c378 7383 0 0.722838f
c379 7377 0 0.296404f
c380 7371 0 0.298685f
c381 7353 0 0.102842f
c382 7350 0 0.0016421f
c383 7348 0 0.0866825f
c384 7341 0 0.00985598f
c385 7334 0 0.00985598f
c386 7327 0 0.00985598f
c387 7320 0 0.00985598f
c388 7312 0 0.00544154f
c389 7295 0 6.1177e-19
c390 7250 0 0.00668061f
c391 7221 0 0.0134171f
c392 7215 0 0.00987725f
c393 7194 0 0.00748171f
c394 7188 0 0.0299998f
c395 7140 0 0.0229833f
c396 7137 0 0.0422434f
c397 7128 0 0.0154579f
c398 7109 0 0.0304601f
c399 7100 0 0.0268172f
c400 7084 0 0.00875994f
c401 7072 0 0.0305768f
c402 7047 0 0.0149626f
c403 7025 0 0.0192497f
c404 7003 0 0.0086958f
c405 6993 0 0.0157312f
c406 6948 0 0.00448312f
c407 6943 0 0.0124602f
c408 6940 0 0.00448312f
c409 6931 0 0.00448312f
c410 6928 0 0.00448312f
c411 6925 0 0.00448312f
c412 6916 0 0.00637389f
c413 6913 0 0.0118161f
c414 6887 0 0.109641f
c415 6869 0 0.0137762f
c416 6866 0 0.0137845f
c417 6863 0 0.0131101f
c418 6836 0 0.0137736f
c419 6833 0 0.0169992f
c420 6830 0 0.0295677f
c421 6801 0 0.0137748f
c422 6798 0 0.0124029f
c423 6795 0 0.0143878f
c424 6768 0 0.0160555f
c425 6765 0 0.0148505f
c426 6762 0 0.0148532f
c427 6746 0 0.159397f
c428 6739 0 0.0593813f
c429 6677 0 0.0890992f
c430 6673 0 0.0930024f
c431 6664 0 0.0119844f
c432 6639 0 0.0926587f
c433 6621 0 0.00645914f
c434 6617 0 0.100891f
c435 6599 0 0.0311287f
c436 6595 0 0.10488f
c437 6560 0 0.167414f
c438 6557 0 0.0200688f
c439 6544 0 0.0186644f
c440 6534 0 0.173222f
c441 6531 0 0.0117649f
c442 6528 0 7.46472e-19
c443 6510 0 0.00907568f
c444 6400 0 0.0207168f
c445 6373 0 0.042712f
c446 6362 0 0.235419f
c447 6353 0 0.0216089f
c448 6326 0 0.0144499f
c449 6323 0 0.0352654f
c450 6317 0 0.0271094f
c451 6276 0 0.0119092f
c452 6219 0 0.0153152f
c453 6207 0 0.0270637f
c454 6204 0 0.0455991f
c455 6198 0 0.0182583f
c456 6080 0 0.015772f
c457 6059 0 0.0210319f
c458 6038 0 0.0119724f
c459 6019 0 0.142182f
c460 6014 0 0.142182f
c461 6009 0 0.144238f
c462 6004 0 0.0490944f
c463 6000 0 0.0118281f
c464 5998 0 0.0940264f
c465 5995 0 6.10166e-19
c466 5993 0 0.094293f
c467 5988 0 0.0911748f
c468 5983 0 0.0914389f
c469 5978 0 0.0978829f
c470 5977 0 0.00379237f
c471 5974 0 0.0859105f
c472 5964 0 0.116885f
c473 5958 0 0.131015f
c474 5955 0 0.0137538f
c475 5954 0 0.10831f
c476 5948 0 0.0913278f
c477 5943 0 0.124158f
c478 5942 0 0.00536534f
c479 5938 0 0.101959f
c480 5935 0 0.00207363f
c481 5934 0 0.104801f
c482 5930 0 0.00341486f
c483 5928 0 0.0946269f
c484 5925 0 0.00197679f
c485 5923 0 0.078513f
c486 5918 0 0.100547f
c487 5915 0 0.00456537f
c488 5913 0 0.0871601f
c489 5910 0 0.00120871f
c490 5908 0 0.0829741f
c491 5903 0 0.0993078f
c492 5902 0 0.00208226f
c493 5898 0 0.0945948f
c494 5893 0 0.0962749f
c495 5890 0 6.04768e-19
c496 5888 0 0.0917271f
c497 5884 0 0.100929f
c498 5880 0 0.00198064f
c499 5878 0 0.128967f
c500 5875 0 0.00574659f
c501 5873 0 0.103209f
c502 5872 0 0.00329392f
c503 5868 0 0.0680225f
c504 5863 0 0.0702498f
c505 5862 0 0.00175085f
c506 5858 0 0.0896f
c507 5854 0 0.109956f
c508 5849 0 0.110779f
c509 5843 0 0.0973276f
c510 5838 0 0.0837062f
c511 5834 0 0.107226f
c512 5823 0 0.121296f
c513 5822 0 0.00553179f
c514 5813 0 0.103904f
c515 5808 0 0.0917898f
c516 5807 0 0.00118404f
c517 5803 0 0.0765978f
c518 5798 0 0.0787684f
c519 5794 0 0.0850895f
c520 5788 0 0.100304f
c521 5785 0 0.0046026f
c522 5778 0 0.0115499f
c523 5765 0 0.00887635f
c524 5763 0 0.083768f
c525 5758 0 0.077146f
c526 5754 0 0.0989699f
c527 5750 0 0.0100433f
c528 5749 0 0.115935f
c529 5743 0 0.0610857f
c530 5740 0 8.63894e-19
c531 5738 0 0.208623f
c532 5735 0 8.46073e-19
c533 5733 0 0.198043f
c534 5728 0 0.200623f
c535 5724 0 0.116417f
c536 5719 0 0.0433612f
c537 5715 0 0.00891923f
c538 5714 0 0.115901f
c539 5710 0 0.00455484f
c540 5709 0 0.102379f
c541 5705 0 0.0121026f
c542 5695 0 0.00218479f
c543 5693 0 0.0508175f
c544 5690 0 0.0119003f
c545 5688 0 0.0915465f
c546 5683 0 0.0915304f
c547 5679 0 0.0504594f
c548 5675 0 0.00944056f
c549 5673 0 0.105161f
c550 5670 0 0.0140159f
c551 5668 0 0.0454468f
c552 5665 0 0.0140159f
c553 5660 0 0.00736672f
c554 5658 0 0.0945343f
c555 5657 0 5.77981e-19
c556 5653 0 0.0836194f
c557 5648 0 0.107267f
c558 5647 0 5.762e-19
c559 5643 0 0.0896551f
c560 5639 0 0.0426174f
c561 5633 0 0.0819156f
c562 5629 0 0.107173f
c563 5624 0 0.110446f
c564 5614 0 0.235177f
c565 5610 0 0.00473636f
c566 5609 0 0.224269f
c567 5605 0 0.00473636f
c568 5604 0 0.227276f
c569 5600 0 0.00478157f
c570 5597 0 0.00174012f
c571 5593 0 0.0744756f
c572 5588 0 0.0403478f
c573 5583 0 0.0418445f
c574 5578 0 0.0770351f
c575 5573 0 0.097513f
c576 5570 0 0.00230601f
c577 5568 0 0.0617865f
c578 5563 0 0.0663748f
c579 5562 0 0.0112426f
c580 5558 0 0.0939836f
c581 5555 0 6.37443e-19
c582 5553 0 0.0916522f
c583 5548 0 0.0899368f
c584 5538 0 0.0477119f
c585 5537 0 0.00222869f
c586 5528 0 0.0912246f
c587 5524 0 0.119389f
c588 5520 0 0.00742574f
c589 5519 0 0.1166f
c590 5513 0 0.0806747f
c591 5508 0 0.078565f
c592 5503 0 0.0819506f
c593 5498 0 0.0474257f
c594 5493 0 0.0814218f
c595 5488 0 0.0493174f
c596 5484 0 0.105764f
c597 5480 0 0.0024933f
c598 5479 0 0.0850741f
c599 5474 0 0.105952f
c600 5470 0 0.013173f
c601 5469 0 0.134609f
c602 5465 0 0.00379974f
c603 5464 0 0.108055f
c604 5458 0 0.106552f
c605 5455 0 0.0033003f
c606 5453 0 0.0918121f
c607 5448 0 0.105594f
c608 5447 0 0.0102816f
c609 5443 0 0.0976683f
c610 5438 0 0.0994874f
c611 5437 0 0.0150873f
c612 5434 0 0.100519f
c613 5430 0 0.00247945f
c614 5428 0 0.0410247f
c615 5419 0 0.0450221f
c616 5409 0 0.121304f
c617 5405 0 0.00384656f
c618 5402 0 0.00168039f
c619 5399 0 0.111074f
c620 5393 0 0.125475f
c621 5390 0 0.00540006f
c622 5388 0 0.0738009f
c623 5383 0 0.0447838f
c624 5380 0 0.0011575f
c625 5378 0 0.0536899f
c626 5375 0 7.49876e-19
c627 5373 0 0.0939798f
c628 5370 0 0.0181992f
c629 5368 0 0.192164f
c630 5365 0 6.62955e-19
c631 5363 0 0.173473f
c632 5358 0 0.18709f
c633 5355 0 6.62955e-19
c634 5353 0 0.0625576f
c635 5348 0 0.0917056f
c636 5343 0 0.0651552f
c637 5342 0 9.59869e-19
c638 5338 0 0.102144f
c639 5337 0 9.62207e-19
c640 5328 0 0.0484394f
c641 5327 0 0.00203979f
c642 5318 0 0.0896372f
c643 5317 0 2.45587e-19
c644 5313 0 0.0389902f
c645 5308 0 0.0743204f
c646 5303 0 0.0959624f
c647 5302 0 8.44799e-19
c648 5298 0 0.083065f
c649 5293 0 0.0869931f
c650 5292 0 0.00142451f
c651 5289 0 0.116851f
c652 5283 0 0.0836142f
c653 5280 0 0.00127223f
c654 5278 0 0.0782974f
c655 5273 0 0.100602f
c656 5270 0 0.00256514f
c657 5268 0 0.0854413f
c658 5263 0 0.0562224f
c659 5260 0 0.00106293f
c660 5258 0 0.104272f
c661 5255 0 2.37022e-19
c662 5254 0 0.108383f
c663 5249 0 0.105159f
c664 5245 0 0.013173f
c665 5244 0 0.232982f
c666 5240 0 0.00650149f
c667 5239 0 0.224203f
c668 5235 0 0.00473636f
c669 5234 0 0.219421f
c670 5230 0 0.00857581f
c671 5228 0 0.0948736f
c672 5223 0 0.100503f
c673 5220 0 0.00168154f
c674 5218 0 0.0997586f
c675 5215 0 0.00145063f
c676 5214 0 0.106328f
c677 5210 0 0.0030274f
c678 5209 0 0.0526801f
c679 5205 0 7.20576e-19
c680 5198 0 0.0950254f
c681 5184 0 0.0871495f
c682 5177 0 0.00168039f
c683 5174 0 0.0482923f
c684 5168 0 0.0304473f
c685 5163 0 0.0731531f
c686 5158 0 0.0463677f
c687 5155 0 0.00265412f
c688 5154 0 0.11621f
c689 5150 0 0.00279294f
c690 5149 0 0.110743f
c691 5144 0 0.110631f
c692 5138 0 0.0667448f
c693 5137 0 0.00277671f
c694 5134 0 0.0975212f
c695 5130 0 0.00293307f
c696 5123 0 0.0484394f
c697 5122 0 0.00203979f
c698 5117 0 3.32564e-19
c699 5114 0 0.102838f
c700 5110 0 0.013173f
c701 5108 0 0.0939412f
c702 5104 0 0.118968f
c703 5098 0 0.107645f
c704 5097 0 0.00105465f
c705 5093 0 0.0974878f
c706 5088 0 0.10293f
c707 5087 0 0.00691411f
c708 5083 0 0.0793819f
c709 5078 0 0.0529774f
c710 5075 0 0.00204237f
c711 5074 0 0.119845f
c712 5068 0 0.0922655f
c713 5065 0 0.00597899f
c714 5063 0 0.0803824f
c715 5058 0 0.0781031f
c716 5053 0 0.101668f
c717 5052 0 9.87905e-19
c718 5048 0 0.0943263f
c719 5045 0 5.91696e-19
c720 5044 0 0.105536f
c721 5040 0 0.013173f
c722 5038 0 0.1027f
c723 5033 0 0.0235204f
c724 5025 0 9.12955e-19
c725 5023 0 0.0803174f
c726 5018 0 0.0889096f
c727 5014 0 0.118891f
c728 5010 0 0.00370642f
c729 5008 0 0.101167f
c730 5005 0 0.00803917f
c731 5003 0 0.107587f
c732 5000 0 0.00270378f
c733 4998 0 0.193377f
c734 4995 0 6.62955e-19
c735 4993 0 0.173471f
c736 4988 0 0.188916f
c737 4985 0 6.62955e-19
c738 4983 0 0.0919714f
c739 4979 0 0.122713f
c740 4975 0 0.00628789f
c741 4973 0 0.0929151f
c742 4965 0 0.0119194f
c743 4962 0 0.00168039f
c744 4953 0 0.124247f
c745 4950 0 0.00848305f
c746 4943 0 0.0955847f
c747 4942 0 0.00193133f
c748 4938 0 0.083065f
c749 4933 0 0.0858276f
c750 4932 0 0.00142451f
c751 4929 0 0.115933f
c752 4925 0 0.0113929f
c753 4924 0 0.111585f
c754 4920 0 9.09757e-19
c755 4918 0 0.0914143f
c756 4914 0 0.108443f
c757 4908 0 0.0738236f
c758 4903 0 0.0452066f
c759 4900 0 8.7971e-19
c760 4899 0 0.108091f
c761 4888 0 0.0484394f
c762 4887 0 0.00203979f
c763 4882 0 3.32564e-19
c764 4878 0 0.101102f
c765 4877 0 0.0122101f
c766 4874 0 0.230997f
c767 4870 0 0.00650149f
c768 4869 0 0.224203f
c769 4865 0 0.00473636f
c770 4864 0 0.222379f
c771 4860 0 0.00494131f
c772 4858 0 0.0693319f
c773 4857 0 0.00154297f
c774 4854 0 0.086753f
c775 4849 0 0.121152f
c776 4845 0 0.0136621f
c777 4844 0 0.101383f
c778 4840 0 0.0105827f
c779 4838 0 0.1012f
c780 4835 0 0.00418182f
c781 4834 0 0.0422089f
c782 4829 0 0.104847f
c783 4825 0 0.012246f
c784 4824 0 0.119741f
c785 4818 0 0.0833973f
c786 4815 0 0.00153926f
c787 4813 0 0.0776889f
c788 4808 0 0.0304471f
c789 4803 0 0.0810906f
c790 4798 0 0.0574994f
c791 4795 0 0.00171441f
c792 4793 0 0.102758f
c793 4788 0 0.0238008f
c794 4780 0 9.12955e-19
c795 4778 0 0.0864434f
c796 4775 0 0.00118311f
c797 4773 0 0.128967f
c798 4772 0 0.00574758f
c799 4768 0 0.10861f
c800 4765 0 0.00332903f
c801 4763 0 0.101636f
c802 4760 0 0.00180412f
c803 4758 0 0.0903932f
c804 4750 0 0.00325465f
c805 4747 0 0.00168039f
c806 4744 0 0.0451275f
c807 4738 0 0.0928688f
c808 4733 0 0.0942299f
c809 4728 0 0.116106f
c810 4727 0 0.00914515f
c811 4723 0 0.116107f
c812 4722 0 0.00259914f
c813 4718 0 0.0974992f
c814 4717 0 0.0139425f
c815 4708 0 0.0850731f
c816 4699 0 0.125384f
c817 4695 0 0.00708352f
c818 4694 0 0.11141f
c819 4690 0 9.03839e-19
c820 4688 0 0.099323f
c821 4687 0 0.00423359f
c822 4678 0 0.0484394f
c823 4677 0 0.00203979f
c824 4672 0 3.32564e-19
c825 4669 0 0.108877f
c826 4663 0 0.0731851f
c827 4658 0 0.0479185f
c828 4655 0 0.00272176f
c829 4654 0 0.12385f
c830 4650 0 0.00769622f
c831 4649 0 0.12382f
c832 4645 0 0.00411319f
c833 4643 0 0.0919714f
c834 4638 0 0.0694567f
c835 4637 0 0.00338502f
c836 4633 0 0.0905894f
c837 4628 0 0.19524f
c838 4625 0 6.62955e-19
c839 4623 0 0.18419f
c840 4618 0 0.194949f
c841 4613 0 0.0923345f
c842 4609 0 0.104131f
c843 4605 0 0.0106569f
c844 4604 0 0.106361f
c845 4600 0 0.013173f
c846 4598 0 0.0815044f
c847 4595 0 0.00451124f
c848 4593 0 0.0781873f
c849 4588 0 0.127019f
c850 4587 0 0.00559747f
c851 4584 0 0.119863f
c852 4578 0 0.078215f
c853 4573 0 0.0549555f
c854 4570 0 0.00270504f
c855 4569 0 0.108443f
c856 4563 0 0.0969175f
c857 4562 0 0.0016943f
c858 4558 0 0.090489f
c859 4557 0 0.00192644f
c860 4553 0 0.0819803f
c861 4552 0 5.93612e-19
c862 4548 0 0.0438812f
c863 4544 0 0.0855063f
c864 4538 0 0.101942f
c865 4533 0 0.0226148f
c866 4525 0 9.12955e-19
c867 4524 0 0.10596f
c868 4520 0 0.00252006f
c869 4519 0 0.0484815f
c870 4515 0 0.00776879f
c871 4513 0 0.10714f
c872 4510 0 0.00247087f
c873 4508 0 0.0935329f
c874 4500 0 0.00325465f
c875 4497 0 0.00168039f
c876 4494 0 0.235257f
c877 4490 0 0.00650149f
c878 4489 0 0.228457f
c879 4485 0 0.00473636f
c880 4484 0 0.224066f
c881 4480 0 0.00681068f
c882 4479 0 0.124105f
c883 4475 0 0.00499988f
c884 4474 0 0.110206f
c885 4468 0 0.0304473f
c886 4453 0 0.0484394f
c887 4452 0 0.00203979f
c888 4447 0 3.32564e-19
c889 4444 0 0.101042f
c890 4440 0 0.00329835f
c891 4433 0 0.0943411f
c892 4429 0 0.12382f
c893 4425 0 0.00411319f
c894 4423 0 0.0918988f
c895 4418 0 0.0861221f
c896 4414 0 0.105311f
c897 4410 0 0.0106569f
c898 4408 0 0.0735742f
c899 4403 0 0.0459557f
c900 4400 0 0.00241465f
c901 4398 0 0.100453f
c902 4394 0 0.102929f
c903 4390 0 0.013173f
c904 4388 0 0.0681962f
c905 4387 0 0.00298902f
c906 4383 0 0.0846576f
c907 4380 0 0.00249529f
c908 4378 0 0.0781989f
c909 4374 0 0.0424479f
c910 4369 0 0.1075f
c911 4365 0 0.00265568f
c912 4363 0 0.105112f
c913 4362 0 0.00838302f
c914 4358 0 0.101031f
c915 4357 0 0.00929222f
c916 4353 0 0.103118f
c917 4352 0 0.00764361f
c918 4349 0 0.119515f
c919 4343 0 0.100837f
c920 4340 0 0.00129368f
c921 4335 0 0.00325465f
c922 4333 0 0.102564f
c923 4328 0 0.0235204f
c924 4320 0 9.12955e-19
c925 4318 0 0.082455f
c926 4313 0 0.0555642f
c927 4310 0 0.00332113f
c928 4307 0 0.00168039f
c929 4303 0 0.105774f
c930 4300 0 0.00246344f
c931 4298 0 0.0947316f
c932 4293 0 0.0919714f
c933 4288 0 0.0916098f
c934 4284 0 0.0997327f
c935 4280 0 0.00343339f
c936 4278 0 0.196266f
c937 4275 0 0.00257434f
c938 4273 0 0.190761f
c939 4270 0 6.62955e-19
c940 4268 0 0.182108f
c941 4264 0 0.0943152f
c942 4260 0 0.00313788f
c943 4257 0 0.00304062f
c944 4253 0 0.0502108f
c945 4252 0 8.59599e-19
c946 4247 0 4.11945e-19
c947 4244 0 0.120158f
c948 4240 0 0.00366019f
c949 4239 0 0.110765f
c950 4233 0 0.0921755f
c951 4229 0 0.108443f
c952 4214 0 0.107611f
c953 4209 0 0.124731f
c954 4205 0 0.00614592f
c955 4203 0 0.0983209f
c956 4202 0 0.0016943f
c957 4198 0 0.0929183f
c958 4197 0 6.37032e-19
c959 4193 0 0.0808318f
c960 4188 0 0.0994114f
c961 4184 0 0.106031f
c962 4180 0 0.0142084f
c963 4179 0 0.135722f
c964 4175 0 0.00634028f
c965 4173 0 0.0732035f
c966 4168 0 0.0404074f
c967 4164 0 0.233285f
c968 4160 0 0.00512274f
c969 4159 0 0.232199f
c970 4155 0 0.00650149f
c971 4154 0 0.220871f
c972 4150 0 0.00638272f
c973 4148 0 0.0914411f
c974 4145 0 0.00269523f
c975 4143 0 0.0870645f
c976 4140 0 8.35096e-19
c977 4138 0 0.100935f
c978 4135 0 0.00947774f
c979 4134 0 0.10147f
c980 4130 0 0.0105827f
c981 4128 0 0.0304471f
c982 4123 0 0.0620629f
c983 4119 0 0.0453923f
c984 4115 0 0.00889546f
c985 4113 0 0.0860076f
c986 4110 0 0.00177365f
c987 4108 0 0.0920046f
c988 4107 0 0.0109132f
c989 4100 0 0.00325465f
c990 4099 0 0.119496f
c991 4092 0 0.00168039f
c992 4089 0 0.0456072f
c993 4085 0 0.0128591f
c994 4083 0 0.100704f
c995 4080 0 0.00373571f
c996 4078 0 0.0945675f
c997 4073 0 0.10208f
c998 4068 0 0.0226137f
c999 4060 0 9.12955e-19
c1000 4058 0 0.0986911f
c1001 4057 0 0.00429593f
c1002 4053 0 0.0849135f
c1003 4048 0 0.0478632f
c1004 4043 0 0.0913109f
c1005 4039 0 0.116083f
c1006 4035 0 0.00282009f
c1007 4034 0 0.110615f
c1008 4030 0 5.2546e-19
c1009 4028 0 0.100197f
c1010 4025 0 0.0139124f
c1011 4023 0 0.0993635f
c1012 4020 0 0.0063539f
c1013 4019 0 0.107225f
c1014 4013 0 0.121187f
c1015 4012 0 0.00293019f
c1016 4008 0 0.102772f
c1017 4007 0 0.00714313f
c1018 4003 0 0.0972939f
c1019 4002 0 0.0142408f
c1020 3998 0 0.0942833f
c1021 3993 0 0.0432293f
c1022 3990 0 0.00419294f
c1023 3988 0 0.0761059f
c1024 3985 0 6.0716e-19
c1025 3978 0 0.084326f
c1026 3968 0 0.12905f
c1027 3967 0 0.00581802f
c1028 3963 0 0.0927479f
c1029 3959 0 0.0943506f
c1030 3955 0 0.0173261f
c1031 3953 0 0.0690168f
c1032 3952 0 0.00204996f
c1033 3948 0 0.0919714f
c1034 3944 0 0.106587f
c1035 3940 0 0.00248727f
c1036 3938 0 0.0837969f
c1037 3935 0 0.00335751f
c1038 3933 0 0.0771544f
c1039 3929 0 0.143199f
c1040 3925 0 0.0128255f
c1041 3923 0 0.0820849f
c1042 3920 0 0.00179184f
c1043 3918 0 0.0518201f
c1044 3915 0 0.00296463f
c1045 3913 0 0.196386f
c1046 3910 0 6.62955e-19
c1047 3908 0 0.1928f
c1048 3905 0 0.00257434f
c1049 3903 0 0.197308f
c1050 3900 0 0.00312967f
c1051 3895 0 0.0108851f
c1052 3893 0 0.086232f
c1053 3890 0 0.00120231f
c1054 3889 0 0.106369f
c1055 3885 0 0.013173f
c1056 3884 0 0.108443f
c1057 3879 0 0.119156f
c1058 3873 0 0.0995774f
c1059 3870 0 0.00343867f
c1060 3868 0 0.0918473f
c1061 3864 0 0.122804f
c1062 3858 0 0.0995796f
c1063 3857 0 7.32001e-19
c1064 3853 0 0.0914924f
c1065 3852 0 7.0661e-19
c1066 3848 0 0.0879045f
c1067 3847 0 7.92718e-19
c1068 3844 0 0.101491f
c1069 3840 0 0.00329681f
c1070 3837 0 7.73276e-19
c1071 3833 0 0.0192134f
c1072 3832 0 0.00202117f
c1073 3827 0 3.33123e-19
c1074 3823 0 0.0935503f
c1075 3820 0 0.0057162f
c1076 3815 0 0.00408641f
c1077 3810 0 0.00359088f
c1078 3808 0 0.0511022f
c1079 3805 0 0.00437385f
c1080 3803 0 0.0912531f
c1081 3798 0 0.099606f
c1082 3795 0 0.0111689f
c1083 3793 0 0.0212151f
c1084 3790 0 0.0119304f
c1085 3785 0 0.00803867f
c1086 3784 0 0.12476f
c1087 3780 0 0.00410255f
c1088 3778 0 0.0865648f
c1089 3777 0 0.00360229f
c1090 3774 0 0.115739f
c1091 3770 0 0.00534903f
c1092 3769 0 0.10794f
c1093 3764 0 0.0591563f
c1094 3760 0 0.00816425f
c1095 3759 0 0.239182f
c1096 3755 0 0.00650149f
c1097 3754 0 0.23577f
c1098 3750 0 0.00594097f
c1099 3749 0 0.227346f
c1100 3745 0 0.00809587f
c1101 3740 0 0.0156916f
c1102 3738 0 0.103263f
c1103 3737 0 0.00114131f
c1104 3733 0 0.030392f
c1105 3729 0 0.107185f