****  Final Project: Two stage pipeline Two mode 6-bit MAC  ***

*************************************************************
*************************************************************
***************Don't touch settings below********************
*************************************************************
*************************************************************
.lib "umc018.l" L18U18V_TT 
.vec 'MAC6.vec'

.temp 25
.op
.options brief post

***************** parameter ****************************
.global  VDD  GND
.param supply = 1.8v
.param load = 10f
.param tr = 0.2n

***************** voltage source ****************************
Vclk CLK GND pulse(0 supply 0 0.1ns 0.1ns "1*period/2-tr" "period*1")
Vd1 VDD GND supply

***************** top-circuit ****************************
XMAC6   VDD GND CLK ACC[1] ACC[2] ACC[4] ACC[6] ACC[8] ACC[10] ACC[0]
+ ACC[3] ACC[5] ACC[7] ACC[9] ACC[11] MODE OUT[0] OUT[1] OUT[2] OUT[3] OUT[4]
+ OUT[5] OUT[6] OUT[8] OUT[9] OUT[7] OUT[10] OUT[11] OUT[12] A[4] A[5] A[3] A[2]
+ A[0] A[1] B[0] B[1] B[2] B[3] B[4] B[5] MAC6
     
CLOAD01 OUT[0] GND load
CLOAD02 OUT[1] GND load 
CLOAD03 OUT[2] GND load 
CLOAD04 OUT[3] GND load 
CLOAD05 OUT[4] GND load 
CLOAD06 OUT[5] GND load 
CLOAD07 OUT[6] GND load 
CLOAD08 OUT[7] GND load 
CLOAD09 OUT[8] GND load 
CLOAD10 OUT[9] GND load 
CLOAD11 OUT[10] GND load 
CLOAD12 OUT[11] GND load 
CLOAD13 OUT[12] GND load 

***************** Average Power ****************************
.meas tran Iavg avg I(Vd1) from=0ns to='100*period'
.meas Pavg param='abs(Iavg)*supply'

.tran 0.1n '1000*period'

*************************************************************
*************************************************************
***************Don't touch settings above********************
*************************************************************
*************************************************************

***** you can modify clock cycle here, remember synchronize with clock cycle in MAC6.vec ****
.param period = 5n

* File: MAC6_LPE.sp
* Created: Fri Jan 13 01:03:26 2023
* Program "Calibre xRC"
* Version "v2021.1_33.19"
* 
.include "MAC6_LPE.sp.pex"
.subckt MAC6  VDD GND CLK OUT[0] OUT[1] OUT[2] OUT[3] OUT[4] OUT[5] OUT[6]
+ OUT[8] OUT[9] OUT[7] OUT[10] OUT[11] OUT[12] ACC[1] ACC[2] ACC[4] ACC[6]
+ ACC[8] ACC[10] ACC[0] ACC[3] ACC[5] ACC[7] ACC[9] ACC[11] MODE A[4] A[5] A[3]
+ A[2] A[0] A[1] B[0] B[1] B[2] B[3] B[4] B[5]
* 
* B[5]	B[5]
* B[4]	B[4]
* B[3]	B[3]
* B[2]	B[2]
* B[1]	B[1]
* B[0]	B[0]
* A[1]	A[1]
* A[0]	A[0]
* A[2]	A[2]
* A[3]	A[3]
* A[5]	A[5]
* A[4]	A[4]
* MODE	MODE
* ACC[11]	ACC[11]
* ACC[9]	ACC[9]
* ACC[7]	ACC[7]
* ACC[5]	ACC[5]
* ACC[3]	ACC[3]
* ACC[0]	ACC[0]
* ACC[10]	ACC[10]
* ACC[8]	ACC[8]
* ACC[6]	ACC[6]
* ACC[4]	ACC[4]
* ACC[2]	ACC[2]
* ACC[1]	ACC[1]
* OUT[12]	OUT[12]
* OUT[11]	OUT[11]
* OUT[10]	OUT[10]
* OUT[7]	OUT[7]
* OUT[9]	OUT[9]
* OUT[8]	OUT[8]
* OUT[6]	OUT[6]
* OUT[5]	OUT[5]
* OUT[4]	OUT[4]
* OUT[3]	OUT[3]
* OUT[2]	OUT[2]
* OUT[1]	OUT[1]
* OUT[0]	OUT[0]
* CLK	CLK
* GND	GND
* VDD	VDD
mXADDER/Xa000/Xao1/M10 N_XADDER/XA000/XAO1/N004_XADDER/Xa000/Xao1/M10_d
+ N_CIN_XADDER/Xa000/Xao1/M10_g N_GND_XADDER/Xa000/Xao1/M10_s
+ N_GND_XADDER/Xa000/Xao1/M10_b N_18_G2 L=1.8e-07 W=4.4e-07 AD=6.16e-14 AS=2.2e-13
+ PD=2.8e-07 PS=1.44e-06
mXADDER/Xa01/Xrb2/M3 N_XADDER/P0_XADDER/Xa01/Xrb2/M3_d
+ N_XADDER/XA01/XRB2/N002_XADDER/Xa01/Xrb2/M3_g N_GND_XADDER/Xa01/Xrb2/M3_s
+ N_GND_XADDER/Xa000/Xao1/M10_b N_18_G2 L=1.8e-07 W=4.4e-07 AD=2.156e-13 AS=2.156e-13
+ PD=1.42e-06 PS=1.42e-06
mXADDER/Xa72/M3 N_OUT1[2]_XADDER/Xa72/M3_d N_XADDER/XA72/N002_XADDER/Xa72/M3_g
+ N_GND_XADDER/Xa72/M3_s N_GND_XADDER/Xa000/Xao1/M10_b N_18_G2 L=1.8e-07 W=4.4e-07
+ AD=2.156e-13 AS=2.156e-13 PD=1.42e-06 PS=1.42e-06
mXADDER/Xa000/Xao1/M9 N_XADDER/XA000/XAO1/N003_XADDER/Xa000/Xao1/M9_d
+ N_XADDER/P0_XADDER/Xa000/Xao1/M9_g
+ N_XADDER/XA000/XAO1/N004_XADDER/Xa000/Xao1/M9_s N_GND_XADDER/Xa000/Xao1/M10_b
+ N_18_G2 L=1.8e-07 W=4.4e-07 AD=2.86e-13 AS=6.16e-14 PD=1.74e-06 PS=2.8e-07
mXADDER/Xa70/M2 N_XADDER/XA70/N002_XADDER/Xa70/M2_d N_XADDER/P0_XADDER/Xa70/M2_g
+ N_CIN_XADDER/Xa70/M2_s N_GND_XADDER/Xa000/Xao1/M10_b N_18_G2 L=1.8e-07 W=4.4e-07
+ AD=1.188e-13 AS=2.156e-13 PD=5.4e-07 PS=1.42e-06
mXBOOTH/Xdffa4/M3 N_XBOOTH/XDFFA4/N0_XBOOTH/Xdffa4/M3_d
+ N_A[4]_XBOOTH/Xdffa4/M3_g N_GND_XBOOTH/Xdffa4/M3_s
+ N_GND_XADDER/Xa000/Xao1/M10_b N_18_G2 L=1.8e-07 W=4.4e-07 AD=2.156e-13 AS=1.188e-13
+ PD=1.42e-06 PS=5.4e-07
mXBOOTH/Xdffa5/M3 N_XBOOTH/XDFFA5/N0_XBOOTH/Xdffa5/M3_d
+ N_A[5]_XBOOTH/Xdffa5/M3_g N_GND_XBOOTH/Xdffa5/M3_s
+ N_GND_XADDER/Xa000/Xao1/M10_b N_18_G2 L=1.8e-07 W=4.4e-07 AD=2.156e-13 AS=1.188e-13
+ PD=1.42e-06 PS=5.4e-07
mXBOOTH/Xdffa3/M3 N_XBOOTH/XDFFA3/N0_XBOOTH/Xdffa3/M3_d
+ N_A[3]_XBOOTH/Xdffa3/M3_g N_GND_XBOOTH/Xdffa3/M3_s
+ N_GND_XADDER/Xa000/Xao1/M10_b N_18_G2 L=1.8e-07 W=4.4e-07 AD=2.156e-13 AS=1.188e-13
+ PD=1.42e-06 PS=5.4e-07
mXBOOTH/Xdffa2/M3 N_XBOOTH/XDFFA2/N0_XBOOTH/Xdffa2/M3_d
+ N_A[2]_XBOOTH/Xdffa2/M3_g N_GND_XBOOTH/Xdffa2/M3_s
+ N_GND_XADDER/Xa000/Xao1/M10_b N_18_G2 L=1.8e-07 W=4.4e-07 AD=2.156e-13 AS=1.188e-13
+ PD=1.42e-06 PS=5.4e-07
mXBOOTH/Xdffa0/M3 N_XBOOTH/XDFFA0/N0_XBOOTH/Xdffa0/M3_d
+ N_A[0]_XBOOTH/Xdffa0/M3_g N_GND_XBOOTH/Xdffa0/M3_s
+ N_GND_XADDER/Xa000/Xao1/M10_b N_18_G2 L=1.8e-07 W=4.4e-07 AD=2.156e-13 AS=1.188e-13
+ PD=1.42e-06 PS=5.4e-07
mXBOOTH/Xdffa1/M3 N_XBOOTH/XDFFA1/N0_XBOOTH/Xdffa1/M3_d
+ N_A[1]_XBOOTH/Xdffa1/M3_g N_GND_XBOOTH/Xdffa1/M3_s
+ N_GND_XADDER/Xa000/Xao1/M10_b N_18_G2 L=1.8e-07 W=4.4e-07 AD=2.156e-13 AS=1.188e-13
+ PD=1.42e-06 PS=5.4e-07
mXADDER/Xa70/M1 N_XADDER/XA70/N002_XADDER/Xa70/M1_d N_CIN_XADDER/Xa70/M1_g
+ N_XADDER/P0_XADDER/Xa70/M1_s N_GND_XADDER/Xa000/Xao1/M10_b N_18_G2 L=1.8e-07
+ W=4.4e-07 AD=1.188e-13 AS=2.332e-13 PD=5.4e-07 PS=1.5e-06
mXADDER/Xa01/Xrb2/M1 N_XADDER/XA01/XRB2/N002_XADDER/Xa01/Xrb2/M1_d
+ N_GND_XADDER/Xa01/Xrb2/M1_g N_S[0]_XADDER/Xa01/Xrb2/M1_s
+ N_GND_XADDER/Xa000/Xao1/M10_b N_18_G2 L=1.8e-07 W=4.4e-07 AD=1.188e-13 AS=2.156e-13
+ PD=5.4e-07 PS=1.42e-06
mXBOOTH/Xdffa4/M6 N_XBOOTH/XDFFA4/P002_XBOOTH/Xdffa4/M6_d
+ N_CLK_XBOOTH/Xdffa4/M6_g N_GND_XBOOTH/Xdffa4/M6_s
+ N_GND_XADDER/Xa000/Xao1/M10_b N_18_G2 L=1.8e-07 W=4.4e-07 AD=6.16e-14 AS=1.188e-13
+ PD=2.8e-07 PS=5.4e-07
mXBOOTH/Xdffa5/M6 N_XBOOTH/XDFFA5/P002_XBOOTH/Xdffa5/M6_d
+ N_CLK_XBOOTH/Xdffa5/M6_g N_GND_XBOOTH/Xdffa5/M6_s
+ N_GND_XADDER/Xa000/Xao1/M10_b N_18_G2 L=1.8e-07 W=4.4e-07 AD=6.16e-14 AS=1.188e-13
+ PD=2.8e-07 PS=5.4e-07
mXBOOTH/Xdffa3/M6 N_XBOOTH/XDFFA3/P002_XBOOTH/Xdffa3/M6_d
+ N_CLK_XBOOTH/Xdffa3/M6_g N_GND_XBOOTH/Xdffa3/M6_s
+ N_GND_XADDER/Xa000/Xao1/M10_b N_18_G2 L=1.8e-07 W=4.4e-07 AD=6.16e-14 AS=1.188e-13
+ PD=2.8e-07 PS=5.4e-07
mXBOOTH/Xdffa2/M6 N_XBOOTH/XDFFA2/P002_XBOOTH/Xdffa2/M6_d
+ N_CLK_XBOOTH/Xdffa2/M6_g N_GND_XBOOTH/Xdffa2/M6_s
+ N_GND_XADDER/Xa000/Xao1/M10_b N_18_G2 L=1.8e-07 W=4.4e-07 AD=6.16e-14 AS=1.188e-13
+ PD=2.8e-07 PS=5.4e-07
mXBOOTH/Xdffa0/M6 N_XBOOTH/XDFFA0/P002_XBOOTH/Xdffa0/M6_d
+ N_CLK_XBOOTH/Xdffa0/M6_g N_GND_XBOOTH/Xdffa0/M6_s
+ N_GND_XADDER/Xa000/Xao1/M10_b N_18_G2 L=1.8e-07 W=4.4e-07 AD=6.16e-14 AS=1.188e-13
+ PD=2.8e-07 PS=5.4e-07
mXBOOTH/Xdffa1/M6 N_XBOOTH/XDFFA1/P002_XBOOTH/Xdffa1/M6_d
+ N_CLK_XBOOTH/Xdffa1/M6_g N_GND_XBOOTH/Xdffa1/M6_s
+ N_GND_XADDER/Xa000/Xao1/M10_b N_18_G2 L=1.8e-07 W=4.4e-07 AD=6.16e-14 AS=1.188e-13
+ PD=2.8e-07 PS=5.4e-07
mXADDER/Xa000/Xao1/Xand1/M16 N_XADDER/XA000/OUT1_XADDER/Xa000/Xao1/Xand1/M16_d
+ N_XADDER/XA000/XAO1/N003_XADDER/Xa000/Xao1/Xand1/M16_g
+ N_GND_XADDER/Xa000/Xao1/Xand1/M16_s N_GND_XADDER/Xa000/Xao1/M10_b N_18_G2 L=1.8e-07
+ W=4.4e-07 AD=2.156e-13 AS=2.156e-13 PD=1.42e-06 PS=1.42e-06
mXBOOTH/Xdffa4/M5 N_XBOOTH/XDFFA4/N1_XBOOTH/Xdffa4/M5_d
+ N_XBOOTH/XDFFA4/N0_XBOOTH/Xdffa4/M5_g N_XBOOTH/XDFFA4/P002_XBOOTH/Xdffa4/M5_s
+ N_GND_XADDER/Xa000/Xao1/M10_b N_18_G2 L=1.8e-07 W=4.4e-07 AD=2.156e-13 AS=6.16e-14
+ PD=1.42e-06 PS=2.8e-07
mXBOOTH/Xdffa5/M5 N_XBOOTH/XDFFA5/N1_XBOOTH/Xdffa5/M5_d
+ N_XBOOTH/XDFFA5/N0_XBOOTH/Xdffa5/M5_g N_XBOOTH/XDFFA5/P002_XBOOTH/Xdffa5/M5_s
+ N_GND_XADDER/Xa000/Xao1/M10_b N_18_G2 L=1.8e-07 W=4.4e-07 AD=2.156e-13 AS=6.16e-14
+ PD=1.42e-06 PS=2.8e-07
mXBOOTH/Xdffa3/M5 N_XBOOTH/XDFFA3/N1_XBOOTH/Xdffa3/M5_d
+ N_XBOOTH/XDFFA3/N0_XBOOTH/Xdffa3/M5_g N_XBOOTH/XDFFA3/P002_XBOOTH/Xdffa3/M5_s
+ N_GND_XADDER/Xa000/Xao1/M10_b N_18_G2 L=1.8e-07 W=4.4e-07 AD=2.156e-13 AS=6.16e-14
+ PD=1.42e-06 PS=2.8e-07
mXBOOTH/Xdffa2/M5 N_XBOOTH/XDFFA2/N1_XBOOTH/Xdffa2/M5_d
+ N_XBOOTH/XDFFA2/N0_XBOOTH/Xdffa2/M5_g N_XBOOTH/XDFFA2/P002_XBOOTH/Xdffa2/M5_s
+ N_GND_XADDER/Xa000/Xao1/M10_b N_18_G2 L=1.8e-07 W=4.4e-07 AD=2.156e-13 AS=6.16e-14
+ PD=1.42e-06 PS=2.8e-07
mXBOOTH/Xdffa0/M5 N_XBOOTH/XDFFA0/N1_XBOOTH/Xdffa0/M5_d
+ N_XBOOTH/XDFFA0/N0_XBOOTH/Xdffa0/M5_g N_XBOOTH/XDFFA0/P002_XBOOTH/Xdffa0/M5_s
+ N_GND_XADDER/Xa000/Xao1/M10_b N_18_G2 L=1.8e-07 W=4.4e-07 AD=2.156e-13 AS=6.16e-14
+ PD=1.42e-06 PS=2.8e-07
mXBOOTH/Xdffa1/M5 N_XBOOTH/XDFFA1/N1_XBOOTH/Xdffa1/M5_d
+ N_XBOOTH/XDFFA1/N0_XBOOTH/Xdffa1/M5_g N_XBOOTH/XDFFA1/P002_XBOOTH/Xdffa1/M5_s
+ N_GND_XADDER/Xa000/Xao1/M10_b N_18_G2 L=1.8e-07 W=4.4e-07 AD=2.156e-13 AS=6.16e-14
+ PD=1.42e-06 PS=2.8e-07
mXADDER/Xa01/Xrb2/M2 N_XADDER/XA01/XRB2/N002_XADDER/Xa01/Xrb2/M2_d
+ N_S[0]_XADDER/Xa01/Xrb2/M2_g N_GND_XADDER/Xa01/Xrb2/M2_s
+ N_GND_XADDER/Xa000/Xao1/M10_b N_18_G2 L=1.8e-07 W=4.4e-07 AD=1.188e-13 AS=2.2e-13
+ PD=5.4e-07 PS=1.44e-06
mXADDER/Xa72/M1 N_XADDER/XA72/N002_XADDER/Xa72/M1_d N_XADDER/P2_XADDER/Xa72/M1_g
+ N_XADDER/GG1_XADDER/Xa72/M1_s N_GND_XADDER/Xa000/Xao1/M10_b N_18_G2 L=1.8e-07
+ W=4.4e-07 AD=1.188e-13 AS=2.332e-13 PD=5.4e-07 PS=1.5e-06
mXACCXOR/X_xor1/M3 N_CACC[1]_XACCXOR/X_xor1/M3_d
+ N_XACCXOR/X_XOR1/N002_XACCXOR/X_xor1/M3_g N_GND_XACCXOR/X_xor1/M3_s
+ N_GND_XADDER/Xa000/Xao1/M10_b N_18_G2 L=1.8e-07 W=4.4e-07 AD=2.156e-13 AS=2.156e-13
+ PD=1.42e-06 PS=1.42e-06
mXACCXOR/X_xor2/M3 N_CACC[2]_XACCXOR/X_xor2/M3_d
+ N_XACCXOR/X_XOR2/N002_XACCXOR/X_xor2/M3_g N_GND_XACCXOR/X_xor2/M3_s
+ N_GND_XADDER/Xa000/Xao1/M10_b N_18_G2 L=1.8e-07 W=4.4e-07 AD=2.156e-13 AS=2.156e-13
+ PD=1.42e-06 PS=1.42e-06
mXACCXOR/X_xor4/M3 N_CACC[4]_XACCXOR/X_xor4/M3_d
+ N_XACCXOR/X_XOR4/N002_XACCXOR/X_xor4/M3_g N_GND_XACCXOR/X_xor4/M3_s
+ N_GND_XADDER/Xa000/Xao1/M10_b N_18_G2 L=1.8e-07 W=4.4e-07 AD=2.156e-13 AS=2.156e-13
+ PD=1.42e-06 PS=1.42e-06
mXACCXOR/X_xor6/M3 N_CACC[6]_XACCXOR/X_xor6/M3_d
+ N_XACCXOR/X_XOR6/N002_XACCXOR/X_xor6/M3_g N_GND_XACCXOR/X_xor6/M3_s
+ N_GND_XADDER/Xa000/Xao1/M10_b N_18_G2 L=1.8e-07 W=4.4e-07 AD=2.156e-13 AS=2.156e-13
+ PD=1.42e-06 PS=1.42e-06
mXACCXOR/X_xor8/M3 N_CACC[8]_XACCXOR/X_xor8/M3_d
+ N_XACCXOR/X_XOR8/N002_XACCXOR/X_xor8/M3_g N_GND_XACCXOR/X_xor8/M3_s
+ N_GND_XADDER/Xa000/Xao1/M10_b N_18_G2 L=1.8e-07 W=4.4e-07 AD=2.156e-13 AS=2.156e-13
+ PD=1.42e-06 PS=1.42e-06
mXACCXOR/X_xor10/M3 N_CACC[10]_XACCXOR/X_xor10/M3_d
+ N_XACCXOR/X_XOR10/N002_XACCXOR/X_xor10/M3_g N_GND_XACCXOR/X_xor10/M3_s
+ N_GND_XADDER/Xa000/Xao1/M10_b N_18_G2 L=1.8e-07 W=4.4e-07 AD=2.156e-13 AS=2.156e-13
+ PD=1.42e-06 PS=1.42e-06
mXADDER/Xa72/M2 N_XADDER/XA72/N002_XADDER/Xa72/M2_d
+ N_XADDER/GG1_XADDER/Xa72/M2_g N_XADDER/P2_XADDER/Xa72/M2_s
+ N_GND_XADDER/Xa000/Xao1/M10_b N_18_G2 L=1.8e-07 W=4.4e-07 AD=1.188e-13 AS=2.156e-13
+ PD=5.4e-07 PS=1.42e-06
mXADDER/Xa70/M3 N_OUT1[0]_XADDER/Xa70/M3_d N_XADDER/XA70/N002_XADDER/Xa70/M3_g
+ N_GND_XADDER/Xa70/M3_s N_GND_XADDER/Xa000/Xao1/M10_b N_18_G2 L=1.8e-07 W=4.4e-07
+ AD=2.156e-13 AS=2.156e-13 PD=1.42e-06 PS=1.42e-06
mXADDER/Xa000/Xao2/M37 N_XADDER/XA000/XAO2/N008_XADDER/Xa000/Xao2/M37_d
+ N_XADDER/XA000/OUT1_XADDER/Xa000/Xao2/M37_g N_GND_XADDER/Xa000/Xao2/M37_s
+ N_GND_XADDER/Xa000/Xao1/M10_b N_18_G2 L=1.8e-07 W=4.4e-07 AD=2.156e-13 AS=1.188e-13
+ PD=1.42e-06 PS=5.4e-07
mXBOOTH/Xdffa4/M8 N_XBOOTH/XDFFA4/N3_XBOOTH/Xdffa4/M8_d N_CLK_XBOOTH/Xdffa4/M8_g
+ N_XBOOTH/XDFFA4/P003_XBOOTH/Xdffa4/M8_s N_GND_XADDER/Xa000/Xao1/M10_b N_18_G2
+ L=1.8e-07 W=4.4e-07 AD=2.156e-13 AS=6.16e-14 PD=1.42e-06 PS=2.8e-07
mXBOOTH/Xdffa5/M8 N_XBOOTH/XDFFA5/N3_XBOOTH/Xdffa5/M8_d N_CLK_XBOOTH/Xdffa5/M8_g
+ N_XBOOTH/XDFFA5/P003_XBOOTH/Xdffa5/M8_s N_GND_XADDER/Xa000/Xao1/M10_b N_18_G2
+ L=1.8e-07 W=4.4e-07 AD=2.156e-13 AS=6.16e-14 PD=1.42e-06 PS=2.8e-07
mXBOOTH/Xdffa3/M8 N_XBOOTH/XDFFA3/N3_XBOOTH/Xdffa3/M8_d N_CLK_XBOOTH/Xdffa3/M8_g
+ N_XBOOTH/XDFFA3/P003_XBOOTH/Xdffa3/M8_s N_GND_XADDER/Xa000/Xao1/M10_b N_18_G2
+ L=1.8e-07 W=4.4e-07 AD=2.156e-13 AS=6.16e-14 PD=1.42e-06 PS=2.8e-07
mXBOOTH/Xdffa2/M8 N_XBOOTH/XDFFA2/N3_XBOOTH/Xdffa2/M8_d N_CLK_XBOOTH/Xdffa2/M8_g
+ N_XBOOTH/XDFFA2/P003_XBOOTH/Xdffa2/M8_s N_GND_XADDER/Xa000/Xao1/M10_b N_18_G2
+ L=1.8e-07 W=4.4e-07 AD=2.156e-13 AS=6.16e-14 PD=1.42e-06 PS=2.8e-07
mXBOOTH/Xdffa0/M8 N_XBOOTH/XDFFA0/N3_XBOOTH/Xdffa0/M8_d N_CLK_XBOOTH/Xdffa0/M8_g
+ N_XBOOTH/XDFFA0/P003_XBOOTH/Xdffa0/M8_s N_GND_XADDER/Xa000/Xao1/M10_b N_18_G2
+ L=1.8e-07 W=4.4e-07 AD=2.156e-13 AS=6.16e-14 PD=1.42e-06 PS=2.8e-07
mXBOOTH/Xdffa1/M8 N_XBOOTH/XDFFA1/N3_XBOOTH/Xdffa1/M8_d N_CLK_XBOOTH/Xdffa1/M8_g
+ N_XBOOTH/XDFFA1/P003_XBOOTH/Xdffa1/M8_s N_GND_XADDER/Xa000/Xao1/M10_b N_18_G2
+ L=1.8e-07 W=4.4e-07 AD=2.156e-13 AS=6.16e-14 PD=1.42e-06 PS=2.8e-07
mXADDER/Xa01/Xrb1/M10 N_XADDER/XA01/XRB1/N004_XADDER/Xa01/Xrb1/M10_d
+ N_S[0]_XADDER/Xa01/Xrb1/M10_g N_GND_XADDER/Xa01/Xrb1/M10_s
+ N_GND_XADDER/Xa000/Xao1/M10_b N_18_G2 L=1.8e-07 W=4.4e-07 AD=6.16e-14 AS=2.2e-13
+ PD=2.8e-07 PS=1.44e-06
mXACCXOR/X_xor1/M1 N_XACCXOR/X_XOR1/N002_XACCXOR/X_xor1/M1_d
+ N_XACCXOR/DACC[1]_XACCXOR/X_xor1/M1_g N_DMODE_XACCXOR/X_xor1/M1_s
+ N_GND_XADDER/Xa000/Xao1/M10_b N_18_G2 L=1.8e-07 W=4.4e-07 AD=1.188e-13 AS=2.156e-13
+ PD=5.4e-07 PS=1.42e-06
mXACCXOR/X_xor2/M1 N_XACCXOR/X_XOR2/N002_XACCXOR/X_xor2/M1_d
+ N_XACCXOR/DACC[2]_XACCXOR/X_xor2/M1_g N_DMODE_XACCXOR/X_xor2/M1_s
+ N_GND_XADDER/Xa000/Xao1/M10_b N_18_G2 L=1.8e-07 W=4.4e-07 AD=1.188e-13 AS=2.156e-13
+ PD=5.4e-07 PS=1.42e-06
mXACCXOR/X_xor4/M1 N_XACCXOR/X_XOR4/N002_XACCXOR/X_xor4/M1_d
+ N_XACCXOR/DACC[4]_XACCXOR/X_xor4/M1_g N_DMODE_XACCXOR/X_xor4/M1_s
+ N_GND_XADDER/Xa000/Xao1/M10_b N_18_G2 L=1.8e-07 W=4.4e-07 AD=1.188e-13 AS=2.156e-13
+ PD=5.4e-07 PS=1.42e-06
mXACCXOR/X_xor6/M1 N_XACCXOR/X_XOR6/N002_XACCXOR/X_xor6/M1_d
+ N_XACCXOR/DACC[6]_XACCXOR/X_xor6/M1_g N_DMODE_XACCXOR/X_xor6/M1_s
+ N_GND_XADDER/Xa000/Xao1/M10_b N_18_G2 L=1.8e-07 W=4.4e-07 AD=1.188e-13 AS=2.156e-13
+ PD=5.4e-07 PS=1.42e-06
mXACCXOR/X_xor8/M1 N_XACCXOR/X_XOR8/N002_XACCXOR/X_xor8/M1_d
+ N_XACCXOR/DACC[8]_XACCXOR/X_xor8/M1_g N_DMODE_XACCXOR/X_xor8/M1_s
+ N_GND_XADDER/Xa000/Xao1/M10_b N_18_G2 L=1.8e-07 W=4.4e-07 AD=1.188e-13 AS=2.156e-13
+ PD=5.4e-07 PS=1.42e-06
mXACCXOR/X_xor10/M1 N_XACCXOR/X_XOR10/N002_XACCXOR/X_xor10/M1_d
+ N_XACCXOR/DACC[10]_XACCXOR/X_xor10/M1_g N_DMODE_XACCXOR/X_xor10/M1_s
+ N_GND_XADDER/Xa000/Xao1/M10_b N_18_G2 L=1.8e-07 W=4.4e-07 AD=1.188e-13 AS=2.156e-13
+ PD=5.4e-07 PS=1.42e-06
mXBOOTH/Xdffa4/M9 N_XBOOTH/XDFFA4/P003_XBOOTH/Xdffa4/M9_d
+ N_XBOOTH/XDFFA4/N1_XBOOTH/Xdffa4/M9_g N_GND_XBOOTH/Xdffa4/M9_s
+ N_GND_XADDER/Xa000/Xao1/M10_b N_18_G2 L=1.8e-07 W=4.4e-07 AD=6.16e-14 AS=1.76e-13
+ PD=2.8e-07 PS=8e-07
mXBOOTH/Xdffa5/M9 N_XBOOTH/XDFFA5/P003_XBOOTH/Xdffa5/M9_d
+ N_XBOOTH/XDFFA5/N1_XBOOTH/Xdffa5/M9_g N_GND_XBOOTH/Xdffa5/M9_s
+ N_GND_XADDER/Xa000/Xao1/M10_b N_18_G2 L=1.8e-07 W=4.4e-07 AD=6.16e-14 AS=1.76e-13
+ PD=2.8e-07 PS=8e-07
mXBOOTH/Xdffa3/M9 N_XBOOTH/XDFFA3/P003_XBOOTH/Xdffa3/M9_d
+ N_XBOOTH/XDFFA3/N1_XBOOTH/Xdffa3/M9_g N_GND_XBOOTH/Xdffa3/M9_s
+ N_GND_XADDER/Xa000/Xao1/M10_b N_18_G2 L=1.8e-07 W=4.4e-07 AD=6.16e-14 AS=1.76e-13
+ PD=2.8e-07 PS=8e-07
mXBOOTH/Xdffa2/M9 N_XBOOTH/XDFFA2/P003_XBOOTH/Xdffa2/M9_d
+ N_XBOOTH/XDFFA2/N1_XBOOTH/Xdffa2/M9_g N_GND_XBOOTH/Xdffa2/M9_s
+ N_GND_XADDER/Xa000/Xao1/M10_b N_18_G2 L=1.8e-07 W=4.4e-07 AD=6.16e-14 AS=1.76e-13
+ PD=2.8e-07 PS=8e-07
mXBOOTH/Xdffa0/M9 N_XBOOTH/XDFFA0/P003_XBOOTH/Xdffa0/M9_d
+ N_XBOOTH/XDFFA0/N1_XBOOTH/Xdffa0/M9_g N_GND_XBOOTH/Xdffa0/M9_s
+ N_GND_XADDER/Xa000/Xao1/M10_b N_18_G2 L=1.8e-07 W=4.4e-07 AD=6.16e-14 AS=1.76e-13
+ PD=2.8e-07 PS=8e-07
mXBOOTH/Xdffa1/M9 N_XBOOTH/XDFFA1/P003_XBOOTH/Xdffa1/M9_d
+ N_XBOOTH/XDFFA1/N1_XBOOTH/Xdffa1/M9_g N_GND_XBOOTH/Xdffa1/M9_s
+ N_GND_XADDER/Xa000/Xao1/M10_b N_18_G2 L=1.8e-07 W=4.4e-07 AD=6.16e-14 AS=1.76e-13
+ PD=2.8e-07 PS=8e-07
mXADDER/Xa000/Xao2/M38 N_XADDER/XA000/XAO2/N008_XADDER/Xa000/Xao2/M38_d
+ N_XADDER/G0_XADDER/Xa000/Xao2/M38_g N_GND_XADDER/Xa000/Xao2/M38_s
+ N_GND_XADDER/Xa000/Xao1/M10_b N_18_G2 L=1.8e-07 W=4.4e-07 AD=2.156e-13 AS=1.188e-13
+ PD=1.42e-06 PS=5.4e-07
mXADDER/Xa01/Xrb1/M9 N_XADDER/XA01/XRB1/N003_XADDER/Xa01/Xrb1/M9_d
+ N_GND_XADDER/Xa01/Xrb1/M9_g N_XADDER/XA01/XRB1/N004_XADDER/Xa01/Xrb1/M9_s
+ N_GND_XADDER/Xa000/Xao1/M10_b N_18_G2 L=1.8e-07 W=4.4e-07 AD=2.2e-13 AS=6.16e-14
+ PD=1.44e-06 PS=2.8e-07
mXACCXOR/X_xor1/M2 N_XACCXOR/X_XOR1/N002_XACCXOR/X_xor1/M2_d
+ N_DMODE_XACCXOR/X_xor1/M2_g N_XACCXOR/DACC[1]_XACCXOR/X_xor1/M2_s
+ N_GND_XADDER/Xa000/Xao1/M10_b N_18_G2 L=1.8e-07 W=4.4e-07 AD=1.188e-13 AS=2.2e-13
+ PD=5.4e-07 PS=1.44e-06
mXACCXOR/X_xor2/M2 N_XACCXOR/X_XOR2/N002_XACCXOR/X_xor2/M2_d
+ N_DMODE_XACCXOR/X_xor2/M2_g N_XACCXOR/DACC[2]_XACCXOR/X_xor2/M2_s
+ N_GND_XADDER/Xa000/Xao1/M10_b N_18_G2 L=1.8e-07 W=4.4e-07 AD=1.188e-13 AS=2.2e-13
+ PD=5.4e-07 PS=1.44e-06
mXACCXOR/X_xor4/M2 N_XACCXOR/X_XOR4/N002_XACCXOR/X_xor4/M2_d
+ N_DMODE_XACCXOR/X_xor4/M2_g N_XACCXOR/DACC[4]_XACCXOR/X_xor4/M2_s
+ N_GND_XADDER/Xa000/Xao1/M10_b N_18_G2 L=1.8e-07 W=4.4e-07 AD=1.188e-13 AS=2.2e-13
+ PD=5.4e-07 PS=1.44e-06
mXACCXOR/X_xor6/M2 N_XACCXOR/X_XOR6/N002_XACCXOR/X_xor6/M2_d
+ N_DMODE_XACCXOR/X_xor6/M2_g N_XACCXOR/DACC[6]_XACCXOR/X_xor6/M2_s
+ N_GND_XADDER/Xa000/Xao1/M10_b N_18_G2 L=1.8e-07 W=4.4e-07 AD=1.188e-13 AS=2.2e-13
+ PD=5.4e-07 PS=1.44e-06
mXACCXOR/X_xor8/M2 N_XACCXOR/X_XOR8/N002_XACCXOR/X_xor8/M2_d
+ N_DMODE_XACCXOR/X_xor8/M2_g N_XACCXOR/DACC[8]_XACCXOR/X_xor8/M2_s
+ N_GND_XADDER/Xa000/Xao1/M10_b N_18_G2 L=1.8e-07 W=4.4e-07 AD=1.188e-13 AS=2.2e-13
+ PD=5.4e-07 PS=1.44e-06
mXACCXOR/X_xor10/M2 N_XACCXOR/X_XOR10/N002_XACCXOR/X_xor10/M2_d
+ N_DMODE_XACCXOR/X_xor10/M2_g N_XACCXOR/DACC[10]_XACCXOR/X_xor10/M2_s
+ N_GND_XADDER/Xa000/Xao1/M10_b N_18_G2 L=1.8e-07 W=4.4e-07 AD=1.188e-13 AS=2.2e-13
+ PD=5.4e-07 PS=1.44e-06
mX02/xd21/M3 N_X02/XD21/N0_X02/xd21/M3_d N_OUT1[0]_X02/xd21/M3_g
+ N_GND_X02/xd21/M3_s N_GND_XADDER/Xa000/Xao1/M10_b N_18_G2 L=1.8e-07 W=4.4e-07
+ AD=2.156e-13 AS=1.188e-13 PD=1.42e-06 PS=5.4e-07
mXADDER/Xa73/M3 N_OUT1[3]_XADDER/Xa73/M3_d N_XADDER/XA73/N002_XADDER/Xa73/M3_g
+ N_GND_XADDER/Xa73/M3_s N_GND_XADDER/Xa000/Xao1/M10_b N_18_G2 L=1.8e-07 W=4.4e-07
+ AD=2.156e-13 AS=2.156e-13 PD=1.42e-06 PS=1.42e-06
mXBOOTH/Xdffa4/M11 N_XBOOTH/A_D[4]_XBOOTH/Xdffa4/M11_d
+ N_XBOOTH/XDFFA4/N3_XBOOTH/Xdffa4/M11_g N_GND_XBOOTH/Xdffa4/M11_s
+ N_GND_XADDER/Xa000/Xao1/M10_b N_18_G2 L=1.8e-07 W=4.4e-07 AD=2.156e-13 AS=1.76e-13
+ PD=1.42e-06 PS=8e-07
mXBOOTH/Xdffa5/M11 N_A_D[5]_XBOOTH/Xdffa5/M11_d
+ N_XBOOTH/XDFFA5/N3_XBOOTH/Xdffa5/M11_g N_GND_XBOOTH/Xdffa5/M11_s
+ N_GND_XADDER/Xa000/Xao1/M10_b N_18_G2 L=1.8e-07 W=4.4e-07 AD=2.156e-13 AS=1.76e-13
+ PD=1.42e-06 PS=8e-07
mXBOOTH/Xdffa3/M11 N_A_D[3]_XBOOTH/Xdffa3/M11_d
+ N_XBOOTH/XDFFA3/N3_XBOOTH/Xdffa3/M11_g N_GND_XBOOTH/Xdffa3/M11_s
+ N_GND_XADDER/Xa000/Xao1/M10_b N_18_G2 L=1.8e-07 W=4.4e-07 AD=2.156e-13 AS=1.76e-13
+ PD=1.42e-06 PS=8e-07
mXBOOTH/Xdffa2/M11 N_XBOOTH/A_D[2]_XBOOTH/Xdffa2/M11_d
+ N_XBOOTH/XDFFA2/N3_XBOOTH/Xdffa2/M11_g N_GND_XBOOTH/Xdffa2/M11_s
+ N_GND_XADDER/Xa000/Xao1/M10_b N_18_G2 L=1.8e-07 W=4.4e-07 AD=2.156e-13 AS=1.76e-13
+ PD=1.42e-06 PS=8e-07
mXBOOTH/Xdffa0/M11 N_XBOOTH/A_D[0]_XBOOTH/Xdffa0/M11_d
+ N_XBOOTH/XDFFA0/N3_XBOOTH/Xdffa0/M11_g N_GND_XBOOTH/Xdffa0/M11_s
+ N_GND_XADDER/Xa000/Xao1/M10_b N_18_G2 L=1.8e-07 W=4.4e-07 AD=2.156e-13 AS=1.76e-13
+ PD=1.42e-06 PS=8e-07
mXBOOTH/Xdffa1/M11 N_A_D[1]_XBOOTH/Xdffa1/M11_d
+ N_XBOOTH/XDFFA1/N3_XBOOTH/Xdffa1/M11_g N_GND_XBOOTH/Xdffa1/M11_s
+ N_GND_XADDER/Xa000/Xao1/M10_b N_18_G2 L=1.8e-07 W=4.4e-07 AD=2.156e-13 AS=1.76e-13
+ PD=1.42e-06 PS=8e-07
mX02/xd21/M6 N_X02/XD21/P002_X02/xd21/M6_d N_CLK_X02/xd21/M6_g
+ N_GND_X02/xd21/M6_s N_GND_XADDER/Xa000/Xao1/M10_b N_18_G2 L=1.8e-07 W=4.4e-07
+ AD=6.16e-14 AS=1.188e-13 PD=2.8e-07 PS=5.4e-07
mXADDER/Xa000/Xao2/Xor1/M16 N_XADDER/G00_XADDER/Xa000/Xao2/Xor1/M16_d
+ N_XADDER/XA000/XAO2/N008_XADDER/Xa000/Xao2/Xor1/M16_g
+ N_GND_XADDER/Xa000/Xao2/Xor1/M16_s N_GND_XADDER/Xa000/Xao1/M10_b N_18_G2 L=1.8e-07
+ W=4.4e-07 AD=2.156e-13 AS=2.156e-13 PD=1.42e-06 PS=1.42e-06
mXADDER/Xa01/Xrb1/Xand1/M16 N_XADDER/G0_XADDER/Xa01/Xrb1/Xand1/M16_d
+ N_XADDER/XA01/XRB1/N003_XADDER/Xa01/Xrb1/Xand1/M16_g
+ N_GND_XADDER/Xa01/Xrb1/Xand1/M16_s N_GND_XADDER/Xa000/Xao1/M10_b N_18_G2 L=1.8e-07
+ W=4.4e-07 AD=2.156e-13 AS=2.156e-13 PD=1.42e-06 PS=1.42e-06
mX02/xd21/M5 N_X02/XD21/N1_X02/xd21/M5_d N_X02/XD21/N0_X02/xd21/M5_g
+ N_X02/XD21/P002_X02/xd21/M5_s N_GND_XADDER/Xa000/Xao1/M10_b N_18_G2 L=1.8e-07
+ W=4.4e-07 AD=2.156e-13 AS=6.16e-14 PD=1.42e-06 PS=2.8e-07
mXACCXOR/Xdffa12/M3 N_XACCXOR/XDFFA12/N0_XACCXOR/Xdffa12/M3_d
+ N_MODE_XACCXOR/Xdffa12/M3_g N_GND_XACCXOR/Xdffa12/M3_s
+ N_GND_XADDER/Xa000/Xao1/M10_b N_18_G2 L=1.8e-07 W=4.4e-07 AD=2.156e-13 AS=1.188e-13
+ PD=1.42e-06 PS=5.4e-07
mXADDER/Xa71/M2 N_XADDER/XA71/N002_XADDER/Xa71/M2_d
+ N_XADDER/G00_XADDER/Xa71/M2_g N_XADDER/P1_XADDER/Xa71/M2_s
+ N_GND_XADDER/Xa000/Xao1/M10_b N_18_G2 L=1.8e-07 W=4.4e-07 AD=1.188e-13 AS=2.156e-13
+ PD=5.4e-07 PS=1.42e-06
mXACCXOR/Xdffa1/M11 N_XACCXOR/DACC[1]_XACCXOR/Xdffa1/M11_d
+ N_XACCXOR/XDFFA1/N3_XACCXOR/Xdffa1/M11_g N_GND_XACCXOR/Xdffa1/M11_s
+ N_GND_XADDER/Xa000/Xao1/M10_b N_18_G2 L=1.8e-07 W=4.4e-07 AD=2.156e-13 AS=1.76e-13
+ PD=1.42e-06 PS=8e-07
mXACCXOR/Xdffa2/M11 N_XACCXOR/DACC[2]_XACCXOR/Xdffa2/M11_d
+ N_XACCXOR/XDFFA2/N3_XACCXOR/Xdffa2/M11_g N_GND_XACCXOR/Xdffa2/M11_s
+ N_GND_XADDER/Xa000/Xao1/M10_b N_18_G2 L=1.8e-07 W=4.4e-07 AD=2.156e-13 AS=1.76e-13
+ PD=1.42e-06 PS=8e-07
mXACCXOR/Xdffa4/M11 N_XACCXOR/DACC[4]_XACCXOR/Xdffa4/M11_d
+ N_XACCXOR/XDFFA4/N3_XACCXOR/Xdffa4/M11_g N_GND_XACCXOR/Xdffa4/M11_s
+ N_GND_XADDER/Xa000/Xao1/M10_b N_18_G2 L=1.8e-07 W=4.4e-07 AD=2.156e-13 AS=1.76e-13
+ PD=1.42e-06 PS=8e-07
mXACCXOR/Xdffa6/M11 N_XACCXOR/DACC[6]_XACCXOR/Xdffa6/M11_d
+ N_XACCXOR/XDFFA6/N3_XACCXOR/Xdffa6/M11_g N_GND_XACCXOR/Xdffa6/M11_s
+ N_GND_XADDER/Xa000/Xao1/M10_b N_18_G2 L=1.8e-07 W=4.4e-07 AD=2.156e-13 AS=1.76e-13
+ PD=1.42e-06 PS=8e-07
mXACCXOR/Xdffa8/M11 N_XACCXOR/DACC[8]_XACCXOR/Xdffa8/M11_d
+ N_XACCXOR/XDFFA8/N3_XACCXOR/Xdffa8/M11_g N_GND_XACCXOR/Xdffa8/M11_s
+ N_GND_XADDER/Xa000/Xao1/M10_b N_18_G2 L=1.8e-07 W=4.4e-07 AD=2.156e-13 AS=1.76e-13
+ PD=1.42e-06 PS=8e-07
mXACCXOR/Xdffa10/M11 N_XACCXOR/DACC[10]_XACCXOR/Xdffa10/M11_d
+ N_XACCXOR/XDFFA10/N3_XACCXOR/Xdffa10/M11_g N_GND_XACCXOR/Xdffa10/M11_s
+ N_GND_XADDER/Xa000/Xao1/M10_b N_18_G2 L=1.8e-07 W=4.4e-07 AD=2.156e-13 AS=1.76e-13
+ PD=1.42e-06 PS=8e-07
mXACCXOR/Xdffa12/M6 N_XACCXOR/XDFFA12/P002_XACCXOR/Xdffa12/M6_d
+ N_CLK_XACCXOR/Xdffa12/M6_g N_GND_XACCXOR/Xdffa12/M6_s
+ N_GND_XADDER/Xa000/Xao1/M10_b N_18_G2 L=1.8e-07 W=4.4e-07 AD=6.16e-14 AS=1.188e-13
+ PD=2.8e-07 PS=5.4e-07
mXADDER/Xa71/M1 N_XADDER/XA71/N002_XADDER/Xa71/M1_d N_XADDER/P1_XADDER/Xa71/M1_g
+ N_XADDER/G00_XADDER/Xa71/M1_s N_GND_XADDER/Xa000/Xao1/M10_b N_18_G2 L=1.8e-07
+ W=4.4e-07 AD=1.188e-13 AS=2.332e-13 PD=5.4e-07 PS=1.5e-06
mXADDER/Xa73/M1 N_XADDER/XA73/N002_XADDER/Xa73/M1_d N_XADDER/P3_XADDER/Xa73/M1_g
+ N_XADDER/GX6[0]_XADDER/Xa73/M1_s N_GND_XADDER/Xa000/Xao1/M10_b N_18_G2 L=1.8e-07
+ W=4.4e-07 AD=1.188e-13 AS=2.332e-13 PD=5.4e-07 PS=1.5e-06
mXBOOTH/Xe2/M8 N_XBOOTH/XE2/_B_XBOOTH/Xe2/M8_d N_XBOOTH/A_D[4]_XBOOTH/Xe2/M8_g
+ N_GND_XBOOTH/Xe2/M8_s N_GND_XADDER/Xa000/Xao1/M10_b N_18_G2 L=1.8e-07 W=4.4e-07
+ AD=2.156e-13 AS=1.188e-13 PD=1.42e-06 PS=5.4e-07
mXBOOTH/Xe1/M8 N_XBOOTH/XE1/_B_XBOOTH/Xe1/M8_d N_XBOOTH/A_D[2]_XBOOTH/Xe1/M8_g
+ N_GND_XBOOTH/Xe1/M8_s N_GND_XADDER/Xa000/Xao1/M10_b N_18_G2 L=1.8e-07 W=4.4e-07
+ AD=2.156e-13 AS=1.188e-13 PD=1.42e-06 PS=5.4e-07
mXBOOTH/Xe0/M8 N_XBOOTH/XE0/_B_XBOOTH/Xe0/M8_d N_XBOOTH/A_D[0]_XBOOTH/Xe0/M8_g
+ N_GND_XBOOTH/Xe0/M8_s N_GND_XADDER/Xa000/Xao1/M10_b N_18_G2 L=1.8e-07 W=4.4e-07
+ AD=2.156e-13 AS=1.188e-13 PD=1.42e-06 PS=5.4e-07
mXACCXOR/Xdffa12/M5 N_XACCXOR/XDFFA12/N1_XACCXOR/Xdffa12/M5_d
+ N_XACCXOR/XDFFA12/N0_XACCXOR/Xdffa12/M5_g
+ N_XACCXOR/XDFFA12/P002_XACCXOR/Xdffa12/M5_s N_GND_XADDER/Xa000/Xao1/M10_b N_18_G2
+ L=1.8e-07 W=4.4e-07 AD=2.156e-13 AS=6.16e-14 PD=1.42e-06 PS=2.8e-07
mXACCXOR/Xdffa1/M9 N_XACCXOR/XDFFA1/P003_XACCXOR/Xdffa1/M9_d
+ N_XACCXOR/XDFFA1/N1_XACCXOR/Xdffa1/M9_g N_GND_XACCXOR/Xdffa1/M9_s
+ N_GND_XADDER/Xa000/Xao1/M10_b N_18_G2 L=1.8e-07 W=4.4e-07 AD=6.16e-14 AS=1.76e-13
+ PD=2.8e-07 PS=8e-07
mXACCXOR/Xdffa2/M9 N_XACCXOR/XDFFA2/P003_XACCXOR/Xdffa2/M9_d
+ N_XACCXOR/XDFFA2/N1_XACCXOR/Xdffa2/M9_g N_GND_XACCXOR/Xdffa2/M9_s
+ N_GND_XADDER/Xa000/Xao1/M10_b N_18_G2 L=1.8e-07 W=4.4e-07 AD=6.16e-14 AS=1.76e-13
+ PD=2.8e-07 PS=8e-07
mXACCXOR/Xdffa4/M9 N_XACCXOR/XDFFA4/P003_XACCXOR/Xdffa4/M9_d
+ N_XACCXOR/XDFFA4/N1_XACCXOR/Xdffa4/M9_g N_GND_XACCXOR/Xdffa4/M9_s
+ N_GND_XADDER/Xa000/Xao1/M10_b N_18_G2 L=1.8e-07 W=4.4e-07 AD=6.16e-14 AS=1.76e-13
+ PD=2.8e-07 PS=8e-07
mXACCXOR/Xdffa6/M9 N_XACCXOR/XDFFA6/P003_XACCXOR/Xdffa6/M9_d
+ N_XACCXOR/XDFFA6/N1_XACCXOR/Xdffa6/M9_g N_GND_XACCXOR/Xdffa6/M9_s
+ N_GND_XADDER/Xa000/Xao1/M10_b N_18_G2 L=1.8e-07 W=4.4e-07 AD=6.16e-14 AS=1.76e-13
+ PD=2.8e-07 PS=8e-07
mXACCXOR/Xdffa8/M9 N_XACCXOR/XDFFA8/P003_XACCXOR/Xdffa8/M9_d
+ N_XACCXOR/XDFFA8/N1_XACCXOR/Xdffa8/M9_g N_GND_XACCXOR/Xdffa8/M9_s
+ N_GND_XADDER/Xa000/Xao1/M10_b N_18_G2 L=1.8e-07 W=4.4e-07 AD=6.16e-14 AS=1.76e-13
+ PD=2.8e-07 PS=8e-07
mXACCXOR/Xdffa10/M9 N_XACCXOR/XDFFA10/P003_XACCXOR/Xdffa10/M9_d
+ N_XACCXOR/XDFFA10/N1_XACCXOR/Xdffa10/M9_g N_GND_XACCXOR/Xdffa10/M9_s
+ N_GND_XADDER/Xa000/Xao1/M10_b N_18_G2 L=1.8e-07 W=4.4e-07 AD=6.16e-14 AS=1.76e-13
+ PD=2.8e-07 PS=8e-07
mXADDER/Xa02/Xrb2/M3 N_XADDER/P1_XADDER/Xa02/Xrb2/M3_d
+ N_XADDER/XA02/XRB2/N002_XADDER/Xa02/Xrb2/M3_g N_GND_XADDER/Xa02/Xrb2/M3_s
+ N_GND_XADDER/Xa000/Xao1/M10_b N_18_G2 L=1.8e-07 W=4.4e-07 AD=2.156e-13 AS=2.156e-13
+ PD=1.42e-06 PS=1.42e-06
mXADDER/Xa11/Xyb1/Xand1/M16 N_XADDER/PP1_XADDER/Xa11/Xyb1/Xand1/M16_d
+ N_XADDER/XA11/XYB1/N003_XADDER/Xa11/Xyb1/Xand1/M16_g
+ N_GND_XADDER/Xa11/Xyb1/Xand1/M16_s N_GND_XADDER/Xa000/Xao1/M10_b N_18_G2 L=1.8e-07
+ W=4.4e-07 AD=2.156e-13 AS=2.156e-13 PD=1.42e-06 PS=1.42e-06
mX02/xd21/M8 N_X02/XD21/N3_X02/xd21/M8_d N_CLK_X02/xd21/M8_g
+ N_X02/XD21/P003_X02/xd21/M8_s N_GND_XADDER/Xa000/Xao1/M10_b N_18_G2 L=1.8e-07
+ W=4.4e-07 AD=2.156e-13 AS=6.16e-14 PD=1.42e-06 PS=2.8e-07
mXADDER/Xa73/M2 N_XADDER/XA73/N002_XADDER/Xa73/M2_d
+ N_XADDER/GX6[0]_XADDER/Xa73/M2_g N_XADDER/P3_XADDER/Xa73/M2_s
+ N_GND_XADDER/Xa000/Xao1/M10_b N_18_G2 L=1.8e-07 W=4.4e-07 AD=1.188e-13 AS=2.156e-13
+ PD=5.4e-07 PS=1.42e-06
mXACCXOR/Xdffa1/M8 N_XACCXOR/XDFFA1/N3_XACCXOR/Xdffa1/M8_d
+ N_CLK_XACCXOR/Xdffa1/M8_g N_XACCXOR/XDFFA1/P003_XACCXOR/Xdffa1/M8_s
+ N_GND_XADDER/Xa000/Xao1/M10_b N_18_G2 L=1.8e-07 W=4.4e-07 AD=2.156e-13 AS=6.16e-14
+ PD=1.42e-06 PS=2.8e-07
mXACCXOR/Xdffa2/M8 N_XACCXOR/XDFFA2/N3_XACCXOR/Xdffa2/M8_d
+ N_CLK_XACCXOR/Xdffa2/M8_g N_XACCXOR/XDFFA2/P003_XACCXOR/Xdffa2/M8_s
+ N_GND_XADDER/Xa000/Xao1/M10_b N_18_G2 L=1.8e-07 W=4.4e-07 AD=2.156e-13 AS=6.16e-14
+ PD=1.42e-06 PS=2.8e-07
mXACCXOR/Xdffa4/M8 N_XACCXOR/XDFFA4/N3_XACCXOR/Xdffa4/M8_d
+ N_CLK_XACCXOR/Xdffa4/M8_g N_XACCXOR/XDFFA4/P003_XACCXOR/Xdffa4/M8_s
+ N_GND_XADDER/Xa000/Xao1/M10_b N_18_G2 L=1.8e-07 W=4.4e-07 AD=2.156e-13 AS=6.16e-14
+ PD=1.42e-06 PS=2.8e-07
mXACCXOR/Xdffa6/M8 N_XACCXOR/XDFFA6/N3_XACCXOR/Xdffa6/M8_d
+ N_CLK_XACCXOR/Xdffa6/M8_g N_XACCXOR/XDFFA6/P003_XACCXOR/Xdffa6/M8_s
+ N_GND_XADDER/Xa000/Xao1/M10_b N_18_G2 L=1.8e-07 W=4.4e-07 AD=2.156e-13 AS=6.16e-14
+ PD=1.42e-06 PS=2.8e-07
mXACCXOR/Xdffa8/M8 N_XACCXOR/XDFFA8/N3_XACCXOR/Xdffa8/M8_d
+ N_CLK_XACCXOR/Xdffa8/M8_g N_XACCXOR/XDFFA8/P003_XACCXOR/Xdffa8/M8_s
+ N_GND_XADDER/Xa000/Xao1/M10_b N_18_G2 L=1.8e-07 W=4.4e-07 AD=2.156e-13 AS=6.16e-14
+ PD=1.42e-06 PS=2.8e-07
mXACCXOR/Xdffa10/M8 N_XACCXOR/XDFFA10/N3_XACCXOR/Xdffa10/M8_d
+ N_CLK_XACCXOR/Xdffa10/M8_g N_XACCXOR/XDFFA10/P003_XACCXOR/Xdffa10/M8_s
+ N_GND_XADDER/Xa000/Xao1/M10_b N_18_G2 L=1.8e-07 W=4.4e-07 AD=2.156e-13 AS=6.16e-14
+ PD=1.42e-06 PS=2.8e-07
mXBOOTH/Xe2/M7 N_XBOOTH/XE2/_A_XBOOTH/Xe2/M7_d N_A_D[5]_XBOOTH/Xe2/M7_g
+ N_GND_XBOOTH/Xe2/M7_s N_GND_XADDER/Xa000/Xao1/M10_b N_18_G2 L=1.8e-07 W=4.4e-07
+ AD=2.464e-13 AS=1.188e-13 PD=1.56e-06 PS=5.4e-07
mXBOOTH/Xe1/M7 N_XBOOTH/XE1/_A_XBOOTH/Xe1/M7_d N_A_D[3]_XBOOTH/Xe1/M7_g
+ N_GND_XBOOTH/Xe1/M7_s N_GND_XADDER/Xa000/Xao1/M10_b N_18_G2 L=1.8e-07 W=4.4e-07
+ AD=2.464e-13 AS=1.188e-13 PD=1.56e-06 PS=5.4e-07
mXBOOTH/Xe0/M7 N_XBOOTH/XE0/_A_XBOOTH/Xe0/M7_d N_A_D[1]_XBOOTH/Xe0/M7_g
+ N_GND_XBOOTH/Xe0/M7_s N_GND_XADDER/Xa000/Xao1/M10_b N_18_G2 L=1.8e-07 W=4.4e-07
+ AD=2.464e-13 AS=1.188e-13 PD=1.56e-06 PS=5.4e-07
mX02/xd21/M9 N_X02/XD21/P003_X02/xd21/M9_d N_X02/XD21/N1_X02/xd21/M9_g
+ N_GND_X02/xd21/M9_s N_GND_XADDER/Xa000/Xao1/M10_b N_18_G2 L=1.8e-07 W=4.4e-07
+ AD=6.16e-14 AS=1.76e-13 PD=2.8e-07 PS=8e-07
mXACCXOR/Xdffa12/M8 N_XACCXOR/XDFFA12/N3_XACCXOR/Xdffa12/M8_d
+ N_CLK_XACCXOR/Xdffa12/M8_g N_XACCXOR/XDFFA12/P003_XACCXOR/Xdffa12/M8_s
+ N_GND_XADDER/Xa000/Xao1/M10_b N_18_G2 L=1.8e-07 W=4.4e-07 AD=2.156e-13 AS=6.16e-14
+ PD=1.42e-06 PS=2.8e-07
mXADDER/Xa71/M3 N_OUT1[1]_XADDER/Xa71/M3_d N_XADDER/XA71/N002_XADDER/Xa71/M3_g
+ N_GND_XADDER/Xa71/M3_s N_GND_XADDER/Xa000/Xao1/M10_b N_18_G2 L=1.8e-07 W=4.4e-07
+ AD=2.156e-13 AS=2.156e-13 PD=1.42e-06 PS=1.42e-06
mXADDER/Xa02/Xrb2/M1 N_XADDER/XA02/XRB2/N002_XADDER/Xa02/Xrb2/M1_d
+ N_C[1]_XADDER/Xa02/Xrb2/M1_g N_S[1]_XADDER/Xa02/Xrb2/M1_s
+ N_GND_XADDER/Xa000/Xao1/M10_b N_18_G2 L=1.8e-07 W=4.4e-07 AD=1.188e-13 AS=2.156e-13
+ PD=5.4e-07 PS=1.42e-06