* File: MAC6_LPE.sp.pex
* Created: Thu Jan 12 23:02:48 2023
* Program "Calibre xRC"
* Version "v2021.1_33.19"
* Nominal Temperature: 27C
* Circuit Temperature: 27C
* 
.subckt PM_MAC6%VDD 2479 2703 2704 2705 2706 2707 2708 2709 2710 2711 2712 2713
+ 2714 2715 2719 2724 2729 2734 2739 2744 2749 2754 2759 2764 2769 2774 2779
+ 2784 2789 2794 2799 2804 2809 2814 2815 2819 2820 2824 2825 2829 2830 2834
+ 2835 2839 2840 2844 2845 2849 2854 2859 2864 2869 2874 2879 2884 2885 2889
+ 2894 2899 2904 2909 2914 2919 2924 2929 2934 2939 2944 2949 2954 2959 2964
+ 2969 2970 2974 2975 2979 2980 2984 2985 2989 2994 2999 3004 3005 3009 3010
+ 3014 3015 3019 3020 3024 3025 3029 3030 3034 3035 3039 3044 3049 3054 3055
+ 3059 3060 3064 3065 3069 3070 3074 3079 3084 3089 3094 3099 3104 3109 3114
+ 3119 3120 3124 3129 3134 3139 3140 3144 3149 3154 3159 3164 3169 3174 3175
+ 3179 3184 3185 3189 3194 3199 3204 3205 3209 3210 3214 3215 3219 3220 3224
+ 3225 3229 3230 3234 3239 3244 3249 3254 3259 3264 3265 3269 3274 3279 3284
+ 3289 3294 3299 3300 3304 3309 3314 3319 3324 3329 3334 3339 3344 3349 3354
+ 3359 3364 3365 3369 3370 3374 3379 3380 3384 3385 3389 3390 3394 3399 3404
+ 3409 3414 3419 3424 3429 3434 3435 3439 3444 3449 3454 3455 3459 3460 3464
+ 3465 3469 3474 3479 3484 3489 3494 3499 3504 3509 3514 3519 3524 3525 3529
+ 3534 3539 3540 3544 3549 3554 3559 3564 3565 3569 3574 3579 3584 3585 3589
+ 3594 3599 3604 3609 3614 3619 3620 3624 3625 3629 3634 3639 3644 3645 3649
+ 3654 3659 3664 3669 3674 3679 3684 3689 3690 3694 3699 3704 3709 3714 3715
+ 3719 3724 3729 3734 3739 3744 3749 3754 3759 3764 3769 3774 3775 3779 3784
+ 3789 3790 3794 3795 3799 3800 3804 3805 3809 3810 3814 3815 3819 3820 3824
+ 3829 3830 3834 3839 3844 3849 3854 3859 3864 3869 3874 3879 3884 3889 3890
+ 3894 3899 3904 3909 3910 3914 3919 3924 3925 3929 3930 3934 3935 3939 3944
+ 3945 3949 3954 3959 3964 3969 3974 3975 3979 3984 3989 3990 3994 3999 4004
+ 4005 4009 4014 4019 4024 4029 4034 4039 4044 4049 4054 4059 4064 4065 4069
+ 4074 4079 4080 4084 4085 4089 4094 4099 4104 4109 4114 4119 4124 4129 4134
+ 4135 4139 4144 4145 4149 4154 4159 4164 4165 4169 4174 4179 4180 4184 4189
+ 4194 4199 4200 4204 4205 4209 4210 4214 4219 4224 4225 4229 4230 4234 4239
+ 4244 4249 4254 4255 4259 4260 4264 4269 4274 4275 4279 4284 4285 4289 4290
+ 4294 4299 4304 4309 4310 4314 4319 4324 4329 4330 4334 4339 4344 4349 4354
+ 4359 4364 4369 4374 4379 4384 4389 4394 4395 4399 4404 4409 4414 4415 4419
+ 4420 4424 4429 4434 4439 4440 4444 4449 4454 4459 4460 4464 4469 4474 4475
+ 4479 4484 4489 4490 4494 4499 4504 4509 4514 4519 4520 4524 4525 4529 4530
+ 4534 4535 4539 4540 4544 4549 4554 4559 4564 4565 4569 4570 4574 4579 4584
+ 4589 4590 4594 4599 4604 4609 4614 4615 4619 4624 4629 4630 4634 4639 4644
+ 4649 4650 4654 4655 4659 4664 4669 4674 4679 4684 4689 4694 4695 4699 4700
+ 4704 4709 4714 4715 4719 4724 4729 4734 4739 4740 4744 4745 4749 4754 4759
+ 4764 4769 4774 4779 4784 4789 4790 4794 4799 4804 4809 4814 4819 4824 4829
+ 4834 4839 4844 4849 4854 4859 4864 4869 4870 4874 4875 4879 4880 4884 4889
+ 4890 4894 4895 4899 4900 4904 4909 4910 4914 4915 4919 4920 4924 4929 4934
+ 4939 4944 4945 4949 4954 4959 4960 4964 4969 4970 4974 4975 4979 4984 4989
+ 4994 4999 5004 5009 5014 5019 5024 5025 5029 5034 5039 5044 5049 5054 5059
+ 5060 5064 5069 5074 5079 5084 5089 5090 5094 5099 5104 5109 5114 5119 5120
+ 5124 5129 5134 5139 5144 5149 5150 5154 5159 5160 5164 5169 5174 5179 5180
+ 5184 5189 5190 5194 5195 5199 5200 5204 5209 5214 5219 5220 5224 5229 5230
+ 5234 5239 5244 5249 5254 5255 5259 5260 5264 5269 5274 5279 5280 5284 5285
+ 5289 5290 5294 5295 5299 5300 5304 5309 5314 5319 5324 5329 5334 5335 5339
+ 5344 5349 5354 5359 5364 5369 5374 5379 5384 5389 5394 5399 5404 5409 5414
+ 5419 5424 5429 5434 5439 5444 5445 5449 5454 5455 5459 5464 5465 5469 5474
+ 5479 5480 5484 5489 5494 5499 5504 5509 5510 5514 5515 5519 5520 5524 5525
+ 5529 5530 5534 5539 5544 5549 5554 5559 5564 5565 5569 5570 5574 5579 5584
+ 5589 5594 5599 5604 5609 5614 5619 5624 5629 5634 5639 5644 5649 5650 5654
+ 5655 5659 5660 5664 5669 5670 5674 5675 5679 5684 5685 5689 5694 5699 5704
+ 5709 5714 5719 5724 5725 5729 5734 5739 5744 5749 5754 5755 5759 5760 5764
+ 5765 5769 5770 5774 5779 5784 5789 5794 5795 5799 5800 5804 5809 5814 5815
+ 5819 5824 5829 5834 5839 5840 5844 5849 5854 5859 5864 5869 5874 5879 5880
+ 5884 5889 5894 5895 5899 5900 5904 5909 5914 5919 5924 5929 5930 5934 5939
+ 5944 5949 5954 5959 5964 5969 5974 5979 5980 5984 5989 5994 5999 6000 6004
+ 6009 6010 6014 6015 6019 6020 6024 6029 6034 6039 6044 6049 6050 6054 6055
+ 6059 6060 6064 6065 7280 7313 7316 7319 7321 7325 7328 7330 7332 7334 7336
+ 7338 7340
c0 10028 0 0.0294672f
c1 10011 0 0.0259762f
c2 10006 0 0.0211332f
c3 9998 0 0.0271887f
c4 9991 0 0.0197747f
c5 9974 0 0.0295911f
c6 9971 0 0.0227993f
c7 9957 0 0.0245f
c8 9951 0 0.0198914f
c9 9948 0 0.09612f
c10 9943 0 0.0261679f
c11 9940 0 0.0343315f
c12 9939 0 0.0368278f
c13 9923 0 0.0493326f
c14 9920 0 0.0287636f
c15 9912 0 0.0538288f
c16 9907 0 0.0504006f
c17 9892 0 0.0542073f
c18 9890 0 0.0690419f
c19 9885 0 0.0225486f
c20 9873 0 0.1208f
c21 9870 0 0.13141f
c22 9867 0 0.129434f
c23 9861 0 0.0254295f
c24 9851 0 0.0198237f
c25 9848 0 0.126475f
c26 9843 0 0.0363857f
c27 9840 0 0.0564843f
c28 9839 0 0.0382151f
c29 9832 0 0.0320486f
c30 9822 0 0.113568f
c31 9819 0 0.11669f
c32 9816 0 0.114676f
c33 9790 0 0.0280052f
c34 9787 0 0.0961585f
c35 9778 0 0.0249676f
c36 9775 0 0.131906f
c37 9772 0 0.144564f
c38 9756 0 0.126234f
c39 9751 0 0.0402382f
c40 9748 0 0.0572531f
c41 9747 0 0.0390731f
c42 9741 0 0.126157f
c43 9728 0 0.0199735f
c44 9725 0 0.122316f
c45 9722 0 0.12028f
c46 9717 0 0.0275488f
c47 9705 0 0.0300366f
c48 9694 0 0.0248819f
c49 9689 0 0.126185f
c50 9686 0 0.141172f
c51 9675 0 0.0349186f
c52 9672 0 0.126679f
c53 9667 0 0.0407453f
c54 9664 0 0.0588384f
c55 9663 0 0.0382033f
c56 9651 0 0.109855f
c57 9648 0 0.127565f
c58 9640 0 0.0264798f
c59 9630 0 0.0210261f
c60 9622 0 0.0316974f
c61 9620 0 0.0447211f
c62 9597 0 0.0242327f
c63 9584 0 0.132236f
c64 9581 0 0.160962f
c65 9578 0 0.12683f
c66 9573 0 0.0407453f
c67 9570 0 0.0613096f
c68 9569 0 0.0403524f
c69 9566 0 0.0204667f
c70 9552 0 0.0218414f
c71 9534 0 0.116503f
c72 9531 0 0.124294f
c73 9523 0 0.0317834f
c74 9521 0 0.044924f
c75 9514 0 0.0227823f
c76 9505 0 0.0252f
c77 9490 0 0.0197665f
c78 9487 0 0.126464f
c79 9482 0 0.0407453f
c80 9479 0 0.0613096f
c81 9478 0 0.0403524f
c82 9473 0 0.126175f
c83 9470 0 0.147492f
c84 9453 0 0.0240684f
c85 9447 0 0.0267506f
c86 9437 0 0.107919f
c87 9434 0 0.128093f
c88 9419 0 0.0314243f
c89 9417 0 0.0440719f
c90 9412 0 0.0279376f
c91 9396 0 0.127131f
c92 9391 0 0.0407453f
c93 9388 0 0.0613096f
c94 9387 0 0.0403731f
c95 9384 0 0.030081f
c96 9367 0 0.126524f
c97 9364 0 0.155513f
c98 9361 0 0.025006f
c99 9349 0 0.0266146f
c100 9333 0 0.0316974f
c101 9331 0 0.0447211f
c102 9326 0 0.116013f
c103 9323 0 0.132157f
c104 9306 0 0.131126f
c105 9301 0 0.0394055f
c106 9298 0 0.0615988f
c107 9297 0 0.0425754f
c108 9290 0 0.0198237f
c109 9272 0 0.126911f
c110 9269 0 0.152474f
c111 9264 0 0.0276004f
c112 9256 0 0.0320204f
c113 9238 0 0.0174253f
c114 9233 0 0.0206758f
c115 9225 0 0.0314243f
c116 9223 0 0.0440645f
c117 9218 0 0.113697f
c118 9215 0 0.13241f
c119 9210 0 0.0197805f
c120 9203 0 0.0270335f
c121 9198 0 0.124658f
c122 9192 0 0.0267506f
c123 9179 0 0.030497f
c124 9170 0 0.081211f
c125 9156 0 0.0518927f
c126 9146 0 0.0296359f
c127 9143 0 0.0961616f
c128 9138 0 0.028848f
c129 9135 0 0.0434093f
c130 9134 0 0.040044f
c131 9130 0 0.0604008f
c132 9125 0 0.0553069f
c133 9115 0 0.0257837f
c134 9113 0 0.041839f
c135 9095 0 0.110267f
c136 9093 0 0.0249287f
c137 9086 0 0.100141f
c138 9080 0 0.125148f
c139 9077 0 0.126286f
c140 9064 0 0.0418939f
c141 9058 0 0.13577f
c142 9047 0 0.132073f
c143 9044 0 0.101321f
c144 9031 0 0.124685f
c145 9021 0 0.131959f
c146 9012 0 0.020806f
c147 8991 0 0.105269f
c148 8985 0 0.0275179f
c149 8982 0 0.127438f
c150 8976 0 0.119574f
c151 8973 0 0.0975814f
c152 8956 0 0.0310231f
c153 8941 0 0.0227438f
c154 8928 0 0.0287724f
c155 8925 0 0.141735f
c156 8887 0 0.0199457f
c157 8882 0 0.0182557f
c158 8864 0 0.0297964f
c159 8844 0 0.0224038f
c160 8839 0 0.0310869f
c161 8812 0 0.0216602f
c162 8809 0 0.0257878f
c163 8785 0 0.0240451f
c164 8782 0 0.0311067f
c165 8774 0 0.0222414f
c166 8768 0 0.0287702f
c167 8763 0 0.0284167f
c168 8754 0 0.0350477f
c169 8343 0 0.215958f
c170 8034 0 0.0699009f
c171 8032 0 0.109264f
c172 8031 0 0.344079f
c173 8029 0 0.264038f
c174 8008 0 0.103009f
c175 8003 0 0.224274f
c176 8002 0 0.334985f
c177 8000 0 0.0411309f
c178 7999 0 0.29508f
c179 7997 0 0.207157f
c180 7995 0 0.273848f
c181 7993 0 0.634292f
c182 7987 0 0.142709f
c183 7982 0 0.313004f
c184 7967 0 0.591588f
c185 7964 0 0.275472f
c186 7960 0 0.40246f
c187 7958 0 0.116698f
c188 7949 0 0.195721f
c189 7946 0 0.132352f
c190 7942 0 0.263862f
c191 7940 0 0.0275648f
c192 7936 0 0.601265f
c193 7934 0 0.0640767f
c194 7926 0 0.192712f
c195 7924 0 0.211955f
c196 7922 0 0.111618f
c197 7920 0 0.225864f
c198 7916 0 0.0465062f
c199 7914 0 0.164832f
c200 7908 0 0.264126f
c201 7905 0 0.573767f
c202 7899 0 0.578226f
c203 7893 0 0.271886f
c204 7887 0 0.396445f
c205 7885 0 0.251295f
c206 7882 0 0.132921f
c207 7874 0 0.605338f
c208 7863 0 0.284304f
c209 7860 0 0.205165f
c210 7854 0 0.274182f
c211 7845 0 0.270363f
c212 7843 0 0.0294901f
c213 7842 0 0.393158f
c214 7840 0 0.609746f
c215 7831 0 0.0753107f
c216 7827 0 0.255848f
c217 7824 0 0.0779816f
c218 7819 0 0.0936597f
c219 7808 0 0.45028f
c220 7806 0 0.118909f
c221 7799 0 0.434774f
c222 7797 0 0.0572327f
c223 7795 0 0.333906f
c224 7789 0 0.04999f
c225 7781 0 0.0367598f
c226 7767 0 0.0575079f
c227 7763 0 0.234206f
c228 7761 0 0.234491f
c229 7747 0 0.152367f
c230 7746 0 0.0803871f
c231 7742 0 0.092666f
c232 7735 0 0.137523f
c233 7734 0 0.0583855f
c234 7733 0 0.0957468f
c235 7730 0 0.0911397f
c236 7729 0 0.0854008f
c237 7726 0 0.0803383f
c238 7723 0 0.0889988f
c239 7720 0 0.0906067f
c240 7719 0 0.085391f
c241 7716 0 0.132382f
c242 7715 0 0.0620681f
c243 7714 0 0.0959166f
c244 7711 0 0.0900566f
c245 7708 0 0.0908897f
c246 7707 0 0.085391f
c247 7704 0 0.138271f
c248 7703 0 0.0618253f
c249 7702 0 0.0959166f
c250 7699 0 0.139037f
c251 7698 0 0.0582196f
c252 7697 0 0.0957934f
c253 7694 0 0.0925199f
c254 7693 0 0.085408f
c255 7690 0 0.0816345f
c256 7687 0 0.0900566f
c257 7684 0 0.0913403f
c258 7683 0 0.085391f
c259 7680 0 0.144648f
c260 7679 0 0.0617381f
c261 7678 0 0.0959166f
c262 7675 0 0.0900566f
c263 7672 0 0.0946358f
c264 7671 0 0.0863919f
c265 7668 0 0.146119f
c266 7667 0 0.061813f
c267 7666 0 0.0959166f
c268 7663 0 0.138985f
c269 7662 0 0.0582196f
c270 7661 0 0.0957931f
c271 7658 0 0.09243f
c272 7657 0 0.085405f
c273 7654 0 0.0802644f
c274 7651 0 0.0900566f
c275 7648 0 0.0974086f
c276 7647 0 0.0863919f
c277 7644 0 0.146119f
c278 7643 0 0.0617322f
c279 7642 0 0.0959166f
c280 7639 0 0.138985f
c281 7638 0 0.0582196f
c282 7637 0 0.0957932f
c283 7634 0 0.0924939f
c284 7633 0 0.0854598f
c285 7630 0 0.0802908f
c286 7627 0 0.0900566f
c287 7624 0 0.0966376f
c288 7623 0 0.0863919f
c289 7620 0 0.146119f
c290 7619 0 0.0618112f
c291 7618 0 0.0959166f
c292 7615 0 0.138985f
c293 7614 0 0.0582196f
c294 7613 0 0.0957934f
c295 7610 0 0.0924346f
c296 7609 0 0.0854041f
c297 7606 0 0.0801764f
c298 7603 0 0.0933665f
c299 7600 0 0.0978463f
c300 7599 0 0.0863919f
c301 7596 0 0.150616f
c302 7595 0 0.0643597f
c303 7594 0 0.0959166f
c304 7591 0 0.138985f
c305 7590 0 0.0582196f
c306 7589 0 0.0957931f
c307 7586 0 0.09243f
c308 7585 0 0.085405f
c309 7582 0 0.0802644f
c310 7579 0 0.110166f
c311 7576 0 0.0966401f
c312 7575 0 0.0862928f
c313 7572 0 0.146167f
c314 7571 0 0.062857f
c315 7570 0 0.0957669f
c316 7567 0 0.123819f
c317 7566 0 0.0589967f
c318 7562 0 0.0899775f
c319 7557 0 0.139198f
c320 7556 0 0.0583092f
c321 7555 0 0.0957931f
c322 7552 0 0.0925341f
c323 7551 0 0.0854041f
c324 7548 0 0.0802042f
c325 7545 0 0.109697f
c326 7542 0 0.0966574f
c327 7541 0 0.0863056f
c328 7538 0 0.146231f
c329 7537 0 0.0628224f
c330 7536 0 0.0957508f
c331 7532 0 0.032644f
c332 7531 0 0.189195f
c333 7524 0 0.0340544f
c334 7519 0 0.0367034f
c335 7457 0 0.00661089f
c336 7454 0 0.022619f
c337 7449 0 0.011985f
c338 7444 0 0.0299853f
c339 7439 0 0.0204567f
c340 7434 0 0.0155158f
c341 7429 0 0.0040079f
c342 7424 0 0.00110509f
c343 7419 0 0.0129602f
c344 7414 0 0.00534806f
c345 7409 0 0.0108221f
c346 7404 0 0.0831717f
c347 7399 0 0.00437568f
c348 7394 0 0.0123114f
c349 7389 0 0.0220954f
c350 7384 0 0.0224635f
c351 7379 0 0.0485652f
c352 7374 0 0.00413442f
c353 7369 0 0.00291895f
c354 7364 0 0.00241928f
c355 7359 0 0.00170348f
c356 7353 0 0.110836f
c357 7350 0 0.139462f
c358 7349 0 0.105809f
c359 7347 0 0.124565f
c360 7345 0 0.0930392f
c361 7343 0 0.054116f
c362 7325 0 0.722838f
c363 7319 0 0.296404f
c364 7313 0 0.298685f
c365 7283 0 0.102842f
c366 7280 0 0.0016421f
c367 7278 0 0.0866825f
c368 7271 0 0.00985598f
c369 7264 0 0.00985598f
c370 7257 0 0.00985598f
c371 7250 0 0.00985598f
c372 7236 0 0.256781f
c373 7151 0 0.0229833f
c374 7148 0 0.0422434f
c375 7139 0 0.0154579f
c376 7120 0 0.0304601f
c377 7111 0 0.0268172f
c378 7095 0 0.00875994f
c379 7083 0 0.0305768f
c380 7058 0 0.0149626f
c381 7036 0 0.0192497f
c382 7014 0 0.0086958f
c383 7004 0 0.0157312f
c384 6959 0 0.00448312f
c385 6954 0 0.0124602f
c386 6951 0 0.00448312f
c387 6942 0 0.00448312f
c388 6939 0 0.00448312f
c389 6936 0 0.00448312f
c390 6927 0 0.00637389f
c391 6924 0 0.0118161f
c392 6898 0 0.109641f
c393 6880 0 0.0137762f
c394 6877 0 0.0137845f
c395 6874 0 0.0131101f
c396 6847 0 0.0137736f
c397 6844 0 0.0169992f
c398 6841 0 0.0295677f
c399 6812 0 0.0137748f
c400 6809 0 0.0124029f
c401 6806 0 0.0143878f
c402 6779 0 0.0160555f
c403 6776 0 0.0148505f
c404 6773 0 0.0148532f
c405 6757 0 0.159397f
c406 6750 0 0.0593813f
c407 6688 0 0.0890992f
c408 6684 0 0.0930024f
c409 6662 0 0.0926587f
c410 6644 0 0.00645914f
c411 6640 0 0.100891f
c412 6622 0 0.0311287f
c413 6618 0 0.024404f
c414 6595 0 0.0200688f
c415 6589 0 0.0186644f
c416 6583 0 0.173281f
c417 6580 0 0.0117649f
c418 6577 0 7.46472e-19
c419 6559 0 0.00907568f
c420 6449 0 0.0207168f
c421 6422 0 0.042712f
c422 6411 0 0.235419f
c423 6402 0 0.0216089f
c424 6375 0 0.0144499f
c425 6372 0 0.0352654f
c426 6366 0 0.0271094f
c427 6325 0 0.0119092f
c428 6268 0 0.0153152f
c429 6256 0 0.0270637f
c430 6253 0 0.0455991f
c431 6247 0 0.0182583f
c432 6129 0 0.015772f
c433 6108 0 0.0210319f
c434 6087 0 0.0119724f
c435 6068 0 0.142182f
c436 6063 0 0.142182f
c437 6058 0 0.144238f
c438 6053 0 0.0490944f
c439 6049 0 0.0118281f
c440 6047 0 0.0940264f
c441 6044 0 6.10166e-19
c442 6042 0 0.094293f
c443 6037 0 0.0911748f
c444 6032 0 0.0914389f
c445 6027 0 0.0978829f
c446 6026 0 0.00379237f
c447 6023 0 0.0859105f
c448 6013 0 0.116885f
c449 6007 0 0.131015f
c450 6004 0 0.0137538f
c451 6003 0 0.10831f
c452 5997 0 0.0913278f
c453 5992 0 0.124158f
c454 5991 0 0.00536534f
c455 5987 0 0.101959f
c456 5984 0 0.00207363f
c457 5983 0 0.104801f
c458 5979 0 0.00341486f
c459 5977 0 0.0946269f
c460 5974 0 0.00197679f
c461 5972 0 0.078513f
c462 5967 0 0.100547f
c463 5964 0 0.00456537f
c464 5962 0 0.0871601f
c465 5959 0 0.00120871f
c466 5957 0 0.0829741f
c467 5952 0 0.0993078f
c468 5951 0 0.00208226f
c469 5947 0 0.0945948f
c470 5942 0 0.0962749f
c471 5939 0 6.04768e-19
c472 5937 0 0.0917271f
c473 5933 0 0.100929f
c474 5929 0 0.00198064f
c475 5927 0 0.128967f
c476 5924 0 0.00574659f
c477 5922 0 0.103209f
c478 5921 0 0.00329392f
c479 5917 0 0.0680225f
c480 5912 0 0.0702498f
c481 5911 0 0.00175085f
c482 5907 0 0.0896f
c483 5903 0 0.109956f
c484 5898 0 0.110779f
c485 5892 0 0.0973276f
c486 5887 0 0.0837062f
c487 5883 0 0.107226f
c488 5872 0 0.121296f
c489 5871 0 0.00553179f
c490 5862 0 0.103904f
c491 5857 0 0.0917898f
c492 5856 0 0.00118404f
c493 5852 0 0.0765978f
c494 5847 0 0.0787684f
c495 5843 0 0.0850895f
c496 5837 0 0.100304f
c497 5834 0 0.0046026f
c498 5827 0 0.0115499f
c499 5814 0 0.00887635f
c500 5812 0 0.083768f
c501 5807 0 0.077146f
c502 5803 0 0.0989699f
c503 5799 0 0.0100433f
c504 5798 0 0.115935f
c505 5792 0 0.0610857f
c506 5789 0 8.63894e-19
c507 5787 0 0.208623f
c508 5784 0 8.46073e-19
c509 5782 0 0.198043f
c510 5777 0 0.200623f
c511 5773 0 0.116417f
c512 5768 0 0.0433612f
c513 5764 0 0.00891923f
c514 5763 0 0.115901f
c515 5759 0 0.00455484f
c516 5758 0 0.102379f
c517 5754 0 0.0121026f
c518 5744 0 0.00218479f
c519 5742 0 0.0508175f
c520 5739 0 0.0119003f
c521 5737 0 0.0915465f
c522 5732 0 0.0915304f
c523 5728 0 0.0504594f
c524 5724 0 0.00944056f
c525 5722 0 0.105161f
c526 5719 0 0.0140159f
c527 5717 0 0.0454468f
c528 5714 0 0.0140159f
c529 5709 0 0.00736672f
c530 5707 0 0.0945343f
c531 5706 0 5.77981e-19
c532 5702 0 0.0836194f
c533 5697 0 0.107267f
c534 5696 0 5.762e-19
c535 5692 0 0.0896551f
c536 5688 0 0.0426174f
c537 5682 0 0.0819156f
c538 5678 0 0.107173f
c539 5673 0 0.110446f
c540 5663 0 0.235177f
c541 5659 0 0.00473636f
c542 5658 0 0.224269f
c543 5654 0 0.00473636f
c544 5653 0 0.227276f
c545 5649 0 0.00478157f
c546 5646 0 0.00174012f
c547 5642 0 0.0744756f
c548 5637 0 0.0403478f
c549 5632 0 0.0418445f
c550 5627 0 0.0770351f
c551 5622 0 0.097513f
c552 5619 0 0.00230601f
c553 5617 0 0.0617865f
c554 5612 0 0.0663748f
c555 5611 0 0.0112426f
c556 5607 0 0.0939836f
c557 5604 0 6.37443e-19
c558 5602 0 0.0916522f
c559 5597 0 0.0899368f
c560 5587 0 0.0477119f
c561 5586 0 0.00222869f
c562 5577 0 0.0912246f
c563 5573 0 0.119389f
c564 5569 0 0.00742574f
c565 5568 0 0.1166f
c566 5562 0 0.0806747f
c567 5557 0 0.078565f
c568 5552 0 0.0819506f
c569 5547 0 0.0474257f
c570 5542 0 0.0814218f
c571 5537 0 0.0493174f
c572 5533 0 0.105764f
c573 5529 0 0.0024933f
c574 5528 0 0.0850741f
c575 5523 0 0.105952f
c576 5519 0 0.013173f
c577 5518 0 0.134609f
c578 5514 0 0.00379974f
c579 5513 0 0.108055f
c580 5507 0 0.106552f
c581 5504 0 0.0033003f
c582 5502 0 0.0918121f
c583 5497 0 0.105594f
c584 5496 0 0.0102816f
c585 5492 0 0.0976683f
c586 5487 0 0.0994874f
c587 5486 0 0.0150873f
c588 5483 0 0.100519f
c589 5479 0 0.00247945f
c590 5477 0 0.0410247f
c591 5468 0 0.0450221f
c592 5458 0 0.121304f
c593 5454 0 0.00384656f
c594 5451 0 0.00168039f
c595 5448 0 0.111074f
c596 5442 0 0.125475f
c597 5439 0 0.00540006f
c598 5437 0 0.0738009f
c599 5432 0 0.0447838f
c600 5429 0 0.0011575f
c601 5427 0 0.0536899f
c602 5424 0 7.49876e-19
c603 5422 0 0.0939798f
c604 5419 0 0.0181992f
c605 5417 0 0.192164f
c606 5414 0 6.62955e-19
c607 5412 0 0.173473f
c608 5407 0 0.18709f
c609 5404 0 6.62955e-19
c610 5402 0 0.0625576f
c611 5397 0 0.0917056f
c612 5392 0 0.0651552f
c613 5391 0 9.59869e-19
c614 5387 0 0.102144f
c615 5386 0 9.62207e-19
c616 5377 0 0.0484394f
c617 5376 0 0.00203979f
c618 5367 0 0.0896372f
c619 5366 0 2.45587e-19
c620 5362 0 0.0389902f
c621 5357 0 0.0743204f
c622 5352 0 0.0959624f
c623 5351 0 8.44799e-19
c624 5347 0 0.083065f
c625 5342 0 0.0869931f
c626 5341 0 0.00142451f
c627 5338 0 0.116851f
c628 5332 0 0.0836142f
c629 5329 0 0.00127223f
c630 5327 0 0.0782974f
c631 5322 0 0.100602f
c632 5319 0 0.00256514f
c633 5317 0 0.0854413f
c634 5312 0 0.0562224f
c635 5309 0 0.00106293f
c636 5307 0 0.104272f
c637 5304 0 2.37022e-19
c638 5303 0 0.108383f
c639 5298 0 0.105159f
c640 5294 0 0.013173f
c641 5293 0 0.232982f
c642 5289 0 0.00650149f
c643 5288 0 0.224203f
c644 5284 0 0.00473636f
c645 5283 0 0.219421f
c646 5279 0 0.00857581f
c647 5277 0 0.0948736f
c648 5272 0 0.100503f
c649 5269 0 0.00168154f
c650 5267 0 0.0997586f
c651 5264 0 0.00145063f
c652 5263 0 0.106328f
c653 5259 0 0.0030274f
c654 5258 0 0.0526801f
c655 5254 0 7.20576e-19
c656 5247 0 0.0950254f
c657 5233 0 0.0871495f
c658 5226 0 0.00168039f
c659 5223 0 0.0482923f
c660 5217 0 0.0304473f
c661 5212 0 0.0731531f
c662 5207 0 0.0463677f
c663 5204 0 0.00265412f
c664 5203 0 0.11621f
c665 5199 0 0.00279294f
c666 5198 0 0.110743f
c667 5193 0 0.110631f
c668 5187 0 0.0667448f
c669 5186 0 0.00277671f
c670 5183 0 0.0975212f
c671 5179 0 0.00293307f
c672 5172 0 0.0484394f
c673 5171 0 0.00203979f
c674 5166 0 3.32564e-19
c675 5163 0 0.102838f
c676 5159 0 0.013173f
c677 5157 0 0.0939412f
c678 5153 0 0.118968f
c679 5147 0 0.107645f
c680 5146 0 0.00105465f
c681 5142 0 0.0974878f
c682 5137 0 0.10293f
c683 5136 0 0.00691411f
c684 5132 0 0.0793819f
c685 5127 0 0.0529774f
c686 5124 0 0.00204237f
c687 5123 0 0.119845f
c688 5117 0 0.0922655f
c689 5114 0 0.00597899f
c690 5112 0 0.0803824f
c691 5107 0 0.0781031f
c692 5102 0 0.101668f
c693 5101 0 9.87905e-19
c694 5097 0 0.0943263f
c695 5094 0 5.91696e-19
c696 5093 0 0.105536f
c697 5089 0 0.013173f
c698 5087 0 0.1027f
c699 5082 0 0.0235204f
c700 5074 0 9.12955e-19
c701 5072 0 0.0803174f
c702 5067 0 0.0889096f
c703 5063 0 0.118891f
c704 5059 0 0.00370642f
c705 5057 0 0.101167f
c706 5054 0 0.00803917f
c707 5052 0 0.107587f
c708 5049 0 0.00270378f
c709 5047 0 0.193377f
c710 5044 0 6.62955e-19
c711 5042 0 0.173471f
c712 5037 0 0.188916f
c713 5034 0 6.62955e-19
c714 5032 0 0.0919714f
c715 5028 0 0.122713f
c716 5024 0 0.00628789f
c717 5022 0 0.0929151f
c718 5014 0 0.0119194f
c719 5011 0 0.00168039f
c720 5002 0 0.124247f
c721 4999 0 0.00848305f
c722 4992 0 0.0955847f
c723 4991 0 0.00193133f
c724 4987 0 0.083065f
c725 4982 0 0.0858276f
c726 4981 0 0.00142451f
c727 4978 0 0.115933f
c728 4974 0 0.0113929f
c729 4973 0 0.111585f
c730 4969 0 9.09757e-19
c731 4967 0 0.0914143f
c732 4963 0 0.108443f
c733 4957 0 0.0738236f
c734 4952 0 0.0452066f
c735 4949 0 8.7971e-19
c736 4948 0 0.108091f
c737 4937 0 0.0484394f
c738 4936 0 0.00203979f
c739 4931 0 3.32564e-19
c740 4927 0 0.101102f
c741 4926 0 0.0122101f
c742 4923 0 0.230997f
c743 4919 0 0.00650149f
c744 4918 0 0.224203f
c745 4914 0 0.00473636f
c746 4913 0 0.222379f
c747 4909 0 0.00494131f
c748 4907 0 0.0693319f
c749 4906 0 0.00154297f
c750 4903 0 0.086753f
c751 4898 0 0.121152f
c752 4894 0 0.0136621f
c753 4893 0 0.101383f
c754 4889 0 0.0105827f
c755 4887 0 0.1012f
c756 4884 0 0.00418182f
c757 4883 0 0.0422089f
c758 4878 0 0.104847f
c759 4874 0 0.012246f
c760 4873 0 0.119741f
c761 4867 0 0.0833973f
c762 4864 0 0.00153926f
c763 4862 0 0.0776889f
c764 4857 0 0.0304471f
c765 4852 0 0.0810906f
c766 4847 0 0.0574994f
c767 4844 0 0.00171441f
c768 4842 0 0.102758f
c769 4837 0 0.0238008f
c770 4829 0 9.12955e-19
c771 4827 0 0.0864434f
c772 4824 0 0.00118311f
c773 4822 0 0.128967f
c774 4821 0 0.00574758f
c775 4817 0 0.10861f
c776 4814 0 0.00332903f
c777 4812 0 0.101636f
c778 4809 0 0.00180412f
c779 4807 0 0.0903932f
c780 4799 0 0.00325465f
c781 4796 0 0.00168039f
c782 4793 0 0.0451275f
c783 4787 0 0.0928688f
c784 4782 0 0.0942299f
c785 4777 0 0.116106f
c786 4776 0 0.00914515f
c787 4772 0 0.116107f
c788 4771 0 0.00259914f
c789 4767 0 0.0974992f
c790 4766 0 0.0139425f
c791 4757 0 0.0850731f
c792 4748 0 0.125384f
c793 4744 0 0.00708352f
c794 4743 0 0.11141f
c795 4739 0 9.03839e-19
c796 4737 0 0.099323f
c797 4736 0 0.00423359f
c798 4727 0 0.0484394f
c799 4726 0 0.00203979f
c800 4721 0 3.32564e-19
c801 4718 0 0.108877f
c802 4712 0 0.0731851f
c803 4707 0 0.0479185f
c804 4704 0 0.00272176f
c805 4703 0 0.12385f
c806 4699 0 0.00769622f
c807 4698 0 0.12382f
c808 4694 0 0.00411319f
c809 4692 0 0.0919714f
c810 4687 0 0.0694567f
c811 4686 0 0.00338502f
c812 4682 0 0.0905894f
c813 4677 0 0.19524f
c814 4674 0 6.62955e-19
c815 4672 0 0.18419f
c816 4667 0 0.194949f
c817 4662 0 0.0923345f
c818 4658 0 0.104131f
c819 4654 0 0.0106569f
c820 4653 0 0.106361f
c821 4649 0 0.013173f
c822 4647 0 0.0815044f
c823 4644 0 0.00451124f
c824 4642 0 0.0781873f
c825 4637 0 0.127019f
c826 4636 0 0.00559747f
c827 4633 0 0.119863f
c828 4627 0 0.078215f
c829 4622 0 0.0549555f
c830 4619 0 0.00270504f
c831 4618 0 0.108443f
c832 4612 0 0.0969175f
c833 4611 0 0.0016943f
c834 4607 0 0.090489f
c835 4606 0 0.00192644f
c836 4602 0 0.0819803f
c837 4601 0 5.93612e-19
c838 4597 0 0.0438812f
c839 4593 0 0.0855063f
c840 4587 0 0.101942f
c841 4582 0 0.0226148f
c842 4574 0 9.12955e-19
c843 4573 0 0.10596f
c844 4569 0 0.00252006f
c845 4568 0 0.0484815f
c846 4564 0 0.00776879f
c847 4562 0 0.10714f
c848 4559 0 0.00247087f
c849 4557 0 0.0935329f
c850 4549 0 0.00325465f
c851 4546 0 0.00168039f
c852 4543 0 0.235257f
c853 4539 0 0.00650149f
c854 4538 0 0.228457f
c855 4534 0 0.00473636f
c856 4533 0 0.224066f
c857 4529 0 0.00681068f
c858 4528 0 0.124105f
c859 4524 0 0.00499988f
c860 4523 0 0.110206f
c861 4517 0 0.0304473f
c862 4502 0 0.0484394f
c863 4501 0 0.00203979f
c864 4496 0 3.32564e-19
c865 4493 0 0.101042f
c866 4489 0 0.00329835f
c867 4482 0 0.0943411f
c868 4478 0 0.12382f
c869 4474 0 0.00411319f
c870 4472 0 0.0918988f
c871 4467 0 0.0861221f
c872 4463 0 0.105311f
c873 4459 0 0.0106569f
c874 4457 0 0.0735742f
c875 4452 0 0.0459557f
c876 4449 0 0.00241465f
c877 4447 0 0.100453f
c878 4443 0 0.102929f
c879 4439 0 0.013173f
c880 4437 0 0.0681962f
c881 4436 0 0.00298902f
c882 4432 0 0.0846576f
c883 4429 0 0.00249529f
c884 4427 0 0.0781989f
c885 4423 0 0.0424479f
c886 4418 0 0.1075f
c887 4414 0 0.00265568f
c888 4412 0 0.105112f
c889 4411 0 0.00838302f
c890 4407 0 0.101031f
c891 4406 0 0.00929222f
c892 4402 0 0.103118f
c893 4401 0 0.00764361f
c894 4398 0 0.119515f
c895 4392 0 0.100837f
c896 4389 0 0.00129368f
c897 4384 0 0.00325465f
c898 4382 0 0.102564f
c899 4377 0 0.0235204f
c900 4369 0 9.12955e-19
c901 4367 0 0.082455f
c902 4362 0 0.0555642f
c903 4359 0 0.00332113f
c904 4356 0 0.00168039f
c905 4352 0 0.105774f
c906 4349 0 0.00246344f
c907 4347 0 0.0947316f
c908 4342 0 0.0919714f
c909 4337 0 0.0916098f
c910 4333 0 0.0997327f
c911 4329 0 0.00343339f
c912 4327 0 0.196266f
c913 4324 0 0.00257434f
c914 4322 0 0.190761f
c915 4319 0 6.62955e-19
c916 4317 0 0.182108f
c917 4313 0 0.0943152f
c918 4309 0 0.00313788f
c919 4306 0 0.00304062f
c920 4302 0 0.0502108f
c921 4301 0 8.59599e-19
c922 4296 0 4.11945e-19
c923 4293 0 0.120158f
c924 4289 0 0.00366019f
c925 4288 0 0.110765f
c926 4282 0 0.0921755f
c927 4278 0 0.108443f
c928 4263 0 0.107611f
c929 4258 0 0.124731f
c930 4254 0 0.00614592f
c931 4252 0 0.0983209f
c932 4251 0 0.0016943f
c933 4247 0 0.0929183f
c934 4246 0 6.37032e-19
c935 4242 0 0.0808318f
c936 4237 0 0.0994114f
c937 4233 0 0.106031f
c938 4229 0 0.0142084f
c939 4228 0 0.135722f
c940 4224 0 0.00634028f
c941 4222 0 0.0732035f
c942 4217 0 0.0404074f
c943 4213 0 0.233285f
c944 4209 0 0.00512274f
c945 4208 0 0.232199f
c946 4204 0 0.00650149f
c947 4203 0 0.220871f
c948 4199 0 0.00638272f
c949 4197 0 0.0914411f
c950 4194 0 0.00269523f
c951 4192 0 0.0870645f
c952 4189 0 8.35096e-19
c953 4187 0 0.100935f
c954 4184 0 0.00947774f
c955 4183 0 0.10147f
c956 4179 0 0.0105827f
c957 4177 0 0.0304471f
c958 4172 0 0.0620629f
c959 4168 0 0.0453923f
c960 4164 0 0.00889546f
c961 4162 0 0.0860076f
c962 4159 0 0.00177365f
c963 4157 0 0.0920046f
c964 4156 0 0.0109132f
c965 4149 0 0.00325465f
c966 4148 0 0.119496f
c967 4141 0 0.00168039f
c968 4138 0 0.0456072f
c969 4134 0 0.0128591f
c970 4132 0 0.100704f
c971 4129 0 0.00373571f
c972 4127 0 0.0945675f
c973 4122 0 0.10208f
c974 4117 0 0.0226137f
c975 4109 0 9.12955e-19
c976 4107 0 0.0986911f
c977 4106 0 0.00429593f
c978 4102 0 0.0849135f
c979 4097 0 0.0478632f
c980 4092 0 0.0913109f
c981 4088 0 0.116083f
c982 4084 0 0.00282009f
c983 4083 0 0.110615f
c984 4079 0 5.2546e-19
c985 4077 0 0.100197f
c986 4074 0 0.0139124f
c987 4072 0 0.0993635f
c988 4069 0 0.0063539f
c989 4068 0 0.107225f
c990 4062 0 0.121187f
c991 4061 0 0.00293019f
c992 4057 0 0.102772f
c993 4056 0 0.00714313f
c994 4052 0 0.0972939f
c995 4051 0 0.0142408f
c996 4047 0 0.0942833f
c997 4042 0 0.0432293f
c998 4039 0 0.00419294f
c999 4037 0 0.0761059f
c1000 4034 0 6.0716e-19
c1001 4027 0 0.084326f
c1002 4017 0 0.12905f
c1003 4016 0 0.00581802f
c1004 4012 0 0.0927479f
c1005 4008 0 0.0943506f
c1006 4004 0 0.0173261f
c1007 4002 0 0.0690168f
c1008 4001 0 0.00204996f
c1009 3997 0 0.0919714f
c1010 3993 0 0.106587f
c1011 3989 0 0.00248727f
c1012 3987 0 0.0837969f
c1013 3984 0 0.00335751f
c1014 3982 0 0.0771544f
c1015 3978 0 0.143199f
c1016 3974 0 0.0128255f
c1017 3972 0 0.0820849f
c1018 3969 0 0.00179184f
c1019 3967 0 0.0518201f
c1020 3964 0 0.00296463f
c1021 3962 0 0.196386f
c1022 3959 0 6.62955e-19
c1023 3957 0 0.1928f
c1024 3954 0 0.00257434f
c1025 3952 0 0.197308f
c1026 3949 0 0.00312967f
c1027 3944 0 0.0108851f
c1028 3942 0 0.086232f
c1029 3939 0 0.00120231f
c1030 3938 0 0.106369f
c1031 3934 0 0.013173f
c1032 3933 0 0.108443f
c1033 3928 0 0.119156f
c1034 3922 0 0.0995774f
c1035 3919 0 0.00343867f
c1036 3917 0 0.0918473f
c1037 3913 0 0.122804f
c1038 3907 0 0.0995796f
c1039 3906 0 7.32001e-19
c1040 3902 0 0.0914924f
c1041 3901 0 7.0661e-19
c1042 3897 0 0.0879045f
c1043 3896 0 7.92718e-19
c1044 3893 0 0.101491f
c1045 3889 0 0.00329681f
c1046 3886 0 7.73276e-19
c1047 3882 0 0.0192134f
c1048 3881 0 0.00202117f
c1049 3876 0 3.33123e-19
c1050 3872 0 0.0935503f
c1051 3869 0 0.0057162f
c1052 3864 0 0.00408641f
c1053 3859 0 0.00359088f
c1054 3857 0 0.0511022f
c1055 3854 0 0.00437385f
c1056 3852 0 0.0912531f
c1057 3847 0 0.099606f
c1058 3844 0 0.0111689f
c1059 3842 0 0.0212151f
c1060 3839 0 0.0119304f
c1061 3834 0 0.00803867f
c1062 3833 0 0.12476f
c1063 3829 0 0.00410255f
c1064 3827 0 0.0865648f
c1065 3826 0 0.00360229f
c1066 3823 0 0.115739f
c1067 3819 0 0.00534903f
c1068 3818 0 0.10794f
c1069 3813 0 0.0591563f
c1070 3809 0 0.00816425f
c1071 3808 0 0.239182f
c1072 3804 0 0.00650149f
c1073 3803 0 0.23577f
c1074 3799 0 0.00594097f
c1075 3798 0 0.227346f
c1076 3794 0 0.00809587f
c1077 3789 0 0.0156916f
c1078 3787 0 0.103263f
c1079 3786 0 0.00114131f
c1080 3782 0 0.030392f
c1081 3778 0 0.107185f
c1082 3772 0 0.0536f
c1083 3771 0 0.00414388f
c1084 3767 0 0.0808798f
c1085 3766 0 2.39813e-19
c1086 3762 0 0.0728429f
c1087 3757 0 0.0393902f
c1088 3752 0 0.0947004f
c1089 3749 0 0.00315621f
c1090 3747 0 0.0609968f
c1091 3742 0 0.0650425f
c1092 3739 0 0.00129054f
c1093 3734 0 0.00324349f
c1094 3732 0 0.086453f
c1095 3729 0 0.00191379f
c1096 3727 0 0.0796536f
c1097 3724 0 3.77373e-19
c1098 3721 0 0.00168358f
c1099 3718 0 0.0484082f
c1100 3714 0 0.00924588f
c1101 3712 0 0.0967871f
c1102 3709 0 0.00175094f
c1103 3707 0 0.0867175f
c1104 3704 0 0.00117991f
c1105 3702 0 0.0463954f
c1106 3701 0 0.00811035f